1JCQ_739
foHydescor03072119513D 1   1.00000     0.00000     0
Hydescorer 1.1.0 fol007
 73 73  0  0  0  0            999 V2000
   19.9053  131.6163    2.0724 C   0  0  0  0  0  0  0  0  0  0  0  0
   18.8484  132.8499    2.9099 S   0  5  0  0  0  0  0  0  0  0  0  0
   20.5000  133.2253    0.3182 C   0  0  0  0  0  0  0  0  0  0  0  0
   21.8257  133.0953    2.3534 N   0  3  0  0  0  0  0  0  0  0  0  0
   21.0688  132.2877    1.3628 C   0  0  1  0  0  0  0  0  0  0  0  0
   21.0761  133.1313   -0.9580 N   0  3  0  0  0  0  0  0  0  0  0  0
   20.2778  133.7383   -1.9941 C   0  0  1  0  0  0  0  0  0  0  0  0
   21.3097  134.4273   -2.9815 C   0  0  1  0  0  0  0  0  0  0  0  0
   22.0532  133.4181   -3.8408 C   0  0  0  0  0  0  0  0  0  0  0  0
   20.6062  135.4580   -3.8779 C   0  0  0  0  0  0  0  0  0  0  0  0
   21.4867  136.0188   -4.9741 C   0  0  0  0  0  0  0  0  0  0  0  0
   19.4091  132.6408   -2.6415 C   0  0  0  0  0  0  0  0  0  0  0  0
   18.5591  133.1147   -3.7629 O   0  0  0  0  0  0  0  0  0  0  0  0
   17.8494  132.0167   -4.3602 C   0  0  1  0  0  0  0  0  0  0  0  0
   16.5632  131.7695   -3.5344 C   0  0  0  0  0  0  0  0  0  0  0  0
   15.5949  132.9016   -3.7385 C   0  0  0  0  0  0  0  0  0  0  0  0
   14.4734  132.7180   -4.5389 C   0  0  0  0  0  0  0  0  0  0  0  0
   15.8170  134.1378   -3.1617 C   0  0  0  0  0  0  0  0  0  0  0  0
   13.5632  133.7576   -4.7610 C   0  0  0  0  0  0  0  0  0  0  0  0
   14.9178  135.2002   -3.3873 C   0  0  0  0  0  0  0  0  0  0  0  0
   13.7759  135.0038   -4.1979 C   0  0  0  0  0  0  0  0  0  0  0  0
   17.4421  132.4573   -5.7750 C   0  0  0  0  0  0  0  0  0  0  0  0
   16.9590  131.6542   -6.5570 O   0  0  0  0  0  0  0  0  0  0  0  0
   17.5579  133.7441   -6.0740 N   0  0  0  0  0  0  0  0  0  0  0  0
   17.1348  134.2275   -7.3929 C   0  0  1  0  0  0  0  0  0  0  0  0
   15.6373  134.5981   -7.3890 C   0  0  0  0  0  0  0  0  0  0  0  0
   15.2419  135.2503   -8.6852 C   0  0  0  0  0  0  0  0  0  0  0  0
   13.7734  136.1085   -8.6352 S   0  0  0  0  0  0  0  0  0  0  0  0
   13.6965  136.9358   -7.3438 O   0  0  0  0  0  0  0  0  0  0  0  0
   12.4610  135.1166   -8.8740 O   0  0  0  0  0  0  0  0  0  0  0  0
   13.9293  137.3076   -9.8711 C   0  0  0  0  0  0  0  0  0  0  0  0
   17.9479  135.4717   -7.7386 C   0  0  0  0  0  0  0  0  0  0  0  0
   18.1663  135.7502   -8.9477 O   0  0  0  0  0  0  0  0  0  0  0  0
   18.3665  136.1516   -6.7791 O   0  5  0  0  0  0  0  0  0  0  0  0
   19.3568  131.1177    1.4012 H   0  0  0  0  0  0  0  0  0  0  0  0
   20.2626  130.9762    2.7525 H   0  0  0  0  0  0  0  0  0  0  0  0
   20.6258  134.1622    0.6445 H   0  0  0  0  0  0  0  0  0  0  0  0
   19.5230  133.0314    0.2299 H   0  0  0  0  0  0  0  0  0  0  0  0
   21.9353  132.5704    3.1974 H   0  0  0  0  0  0  0  0  0  0  0  0
   22.7262  133.3205    1.9815 H   0  0  0  0  0  0  0  0  0  0  0  0
   21.6629  131.6052    0.9373 H   0  0  0  0  0  0  0  0  0  0  0  0
   21.1999  132.1640   -1.1792 H   0  0  0  0  0  0  0  0  0  0  0  0
   19.6858  134.4365   -1.5917 H   0  0  0  0  0  0  0  0  0  0  0  0
   21.9851  134.9140   -2.4275 H   0  0  0  0  0  0  0  0  0  0  0  0
   22.6895  133.8986   -4.4442 H   0  0  0  0  0  0  0  0  0  0  0  0
   22.5620  132.7898   -3.2522 H   0  0  0  0  0  0  0  0  0  0  0  0
   21.3972  132.9016   -4.3914 H   0  0  0  0  0  0  0  0  0  0  0  0
   20.2969  136.2160   -3.3035 H   0  0  0  0  0  0  0  0  0  0  0  0
   19.8154  135.0179   -4.3032 H   0  0  0  0  0  0  0  0  0  0  0  0
   20.9658  136.6793   -5.5149 H   0  0  0  0  0  0  0  0  0  0  0  0
   22.2787  136.4728   -4.5660 H   0  0  0  0  0  0  0  0  0  0  0  0
   21.7972  135.2747   -5.5657 H   0  0  0  0  0  0  0  0  0  0  0  0
   18.8121  132.2578   -1.9365 H   0  0  0  0  0  0  0  0  0  0  0  0
   20.0158  131.9259   -2.9891 H   0  0  0  0  0  0  0  0  0  0  0  0
   18.4193  131.1956   -4.3906 H   0  0  0  0  0  0  0  0  0  0  0  0
   16.7993  131.7064   -2.5647 H   0  0  0  0  0  0  0  0  0  0  0  0
   16.1391  130.9136   -3.8305 H   0  0  0  0  0  0  0  0  0  0  0  0
   14.3142  131.8268   -4.9639 H   0  0  0  0  0  0  0  0  0  0  0  0
   16.6191  134.2794   -2.5815 H   0  0  0  0  0  0  0  0  0  0  0  0
   12.7555  133.5993   -5.3290 H   0  0  0  0  0  0  0  0  0  0  0  0
   15.0880  136.0944   -2.9733 H   0  0  0  0  0  0  0  0  0  0  0  0
   13.1333  135.7523   -4.3614 H   0  0  0  0  0  0  0  0  0  0  0  0
   17.9326  134.3832   -5.4022 H   0  0  0  0  0  0  0  0  0  0  0  0
   17.3017  133.5184   -8.0779 H   0  0  0  0  0  0  0  0  0  0  0  0
   15.4589  135.2316   -6.6361 H   0  0  0  0  0  0  0  0  0  0  0  0
   15.0949  133.7677   -7.2615 H   0  0  0  0  0  0  0  0  0  0  0  0
   15.1611  134.5362   -9.3805 H   0  0  0  0  0  0  0  0  0  0  0  0
   15.9663  135.8887   -8.9457 H   0  0  0  0  0  0  0  0  0  0  0  0
   13.0968  137.8604   -9.9060 H   0  0  0  0  0  0  0  0  0  0  0  0
   14.7119  137.8960   -9.6679 H   0  0  0  0  0  0  0  0  0  0  0  0
   14.0693  136.8599  -10.7542 H   0  0  0  0  0  0  0  0  0  0  0  0
   21.3250  133.9387    2.5481 H   0  0  0  0  0  0  0  0  0  0  0  0
   21.9669  133.5853   -0.9376 H   0  0  0  0  0  0  0  0  0  0  0  0
  2  1  1  0  0  0  0
  5  3  1  0  0  0  0
  5  1  1  0  0  0  0
  5  4  1  0  0  0  0
  6  3  1  0  0  0  0
  7  6  1  0  0  0  0
  8  7  1  0  0  0  0
  8  9  1  0  0  0  0
 10  8  1  0  0  0  0
 11 10  1  0  0  0  0
  7 12  1  0  0  0  0
 13 12  1  0  0  0  0
 14 13  1  0  0  0  0
 14 15  1  0  0  0  0
 16 15  1  0  0  0  0
 17 16  2  0  0  0  0
 18 16  1  0  0  0  0
 19 17  1  0  0  0  0
 20 18  2  0  0  0  0
 21 20  1  0  0  0  0
 21 19  2  0  0  0  0
 22 14  1  0  0  0  0
 23 22  2  0  0  0  0
 24 22  1  0  0  0  0
 25 24  1  0  0  0  0
 25 26  1  0  0  0  0
 27 26  1  0  0  0  0
 28 27  1  0  0  0  0
 29 28  2  0  0  0  0
 30 28  2  0  0  0  0
 31 28  1  0  0  0  0
 32 25  1  0  0  0  0
 33 32  2  0  0  0  0
 34 32  1  0  0  0  0
  1 35  1  0  0  0  0
  1 36  1  0  0  0  0
  4 72  1  0  0  0  0
  3 37  1  0  0  0  0
  3 38  1  0  0  0  0
  4 39  1  0  0  0  0
  4 40  1  0  0  0  0
  5 41  1  0  0  0  0
  6 42  1  0  0  0  0
  7 43  1  0  0  0  0
  8 44  1  0  0  0  0
  9 45  1  0  0  0  0
  9 46  1  0  0  0  0
  9 47  1  0  0  0  0
 10 48  1  0  0  0  0
 10 49  1  0  0  0  0
 11 50  1  0  0  0  0
 11 51  1  0  0  0  0
 11 52  1  0  0  0  0
 12 53  1  0  0  0  0
 12 54  1  0  0  0  0
 14 55  1  0  0  0  0
 15 56  1  0  0  0  0
 15 57  1  0  0  0  0
 17 58  1  0  0  0  0
 18 59  1  0  0  0  0
 19 60  1  0  0  0  0
 20 61  1  0  0  0  0
 21 62  1  0  0  0  0
 24 63  1  0  0  0  0
 25 64  1  0  0  0  0
 26 65  1  0  0  0  0
 26 66  1  0  0  0  0
 27 67  1  0  0  0  0
 27 68  1  0  0  0  0
 31 69  1  0  0  0  0
 31 70  1  0  0  0  0
 31 71  1  0  0  0  0
  6 73  1  0  0  0  0
M  CHG  4   2  -1   4   1   6   1  34  -1
M  END
> <BIOSOLVEIT.HYDE_ESTIMATED_AFFINITY_LOWER_BOUNDARY [nM]>
17.781068

> <BIOSOLVEIT.HYDE_ESTIMATED_AFFINITY_UPPER_BOUNDARY [nM]>
1766.654193

> <BIOSOLVEIT.HYDE_LIGAND_EFFICIENCY range: ++, +, 0, -, -->
-

> <BIOSOLVEIT.HYDE_LIGAND_LIPOPHILIC_EFFICIENCY range: ++, +, 0, -, -->
++

> <BIOSOLVEIT.INTER_CLASH range: red, yellow, green>
green

> <BIOSOLVEIT.INTRA_CLASH range: red, yellow, green>
green

> <BIOSOLVEIT.LOGP>
-1.9302

> <BIOSOLVEIT.MOLECULAR WEIGHT>
517.706

> <BIOSOLVEIT.MOLECULE_CHECKSUM>
LTM4LjUzNzM7MS4xMzM0NQ==

> <BIOSOLVEIT.TORSION_QUALITY range: red, yellow, green, not rotatable>
yellow

> <BIOSOLVEIT.TPSA>
156.85

$$$$
