1LD8_FPP
foHydescor03072119513D 1   1.00000     0.00000     0
Hydescorer 1.1.0 fol007
 49 48  0  0  0  0            999 V2000
   24.7228  130.7583   -1.1033 C   0  0  0  0  0  0  0  0  0  0  0  0
   24.4886  131.9601   -0.3793 O   0  0  0  0  0  0  0  0  0  0  0  0
   23.4194  130.1183   -1.5384 C   0  0  0  0  0  0  0  0  0  0  0  0
   23.0205  129.9775   -2.8374 C   0  0  0  0  0  0  0  0  0  0  0  0
   23.8468  130.4492   -4.0095 C   0  0  0  0  0  0  0  0  0  0  0  0
   21.7149  129.3337   -3.2612 C   0  0  0  0  0  0  0  0  0  0  0  0
   20.8528  128.7348   -2.1416 C   0  0  0  0  0  0  0  0  0  0  0  0
   19.4719  128.3712   -2.6324 C   0  0  0  0  0  0  0  0  0  0  0  0
   18.3627  128.2890   -1.8563 C   0  0  0  0  0  0  0  0  0  0  0  0
   18.3529  128.5510   -0.3688 C   0  0  0  0  0  0  0  0  0  0  0  0
   17.0097  127.9165   -2.4135 C   0  0  0  0  0  0  0  0  0  0  0  0
   16.9461  127.7491   -3.9286 C   0  0  0  0  0  0  0  0  0  0  0  0
   15.5705  127.2963   -4.3695 C   0  0  0  0  0  0  0  0  0  0  0  0
   14.7046  128.0225   -5.1103 C   0  0  0  0  0  0  0  0  0  0  0  0
   14.9827  129.4142   -5.6125 C   0  0  0  0  0  0  0  0  0  0  0  0
   13.3545  127.4969   -5.5057 C   0  0  0  0  0  0  0  0  0  0  0  0
   25.0857  132.0563    1.0971 P   0  0  0  0  0  0  0  0  0  0  0  0
   26.5812  131.9749    1.1446 O   0  0  0  0  0  0  0  0  0  0  0  0
   24.5512  133.3770    1.6701 O   0  5  0  0  0  0  0  0  0  0  0  0
   24.3986  130.9231    1.9703 O   0  0  0  0  0  0  0  0  0  0  0  0
   25.0008  129.9937    3.1005 P   0  0  0  0  0  0  0  0  0  0  0  0
   26.1444  130.6299    3.8355 O   0  0  0  0  0  0  0  0  0  0  0  0
   25.3971  128.7000    2.3516 O   0  5  0  0  0  0  0  0  0  0  0  0
   23.7955  129.6918    4.0268 O   0  5  0  0  0  0  0  0  0  0  0  0
   25.2220  130.1177   -0.5198 H   0  0  0  0  0  0  0  0  0  0  0  0
   25.2704  130.9670   -1.9137 H   0  0  0  0  0  0  0  0  0  0  0  0
   22.8088  129.7751   -0.8246 H   0  0  0  0  0  0  0  0  0  0  0  0
   23.3640  130.2453   -4.8612 H   0  0  0  0  0  0  0  0  0  0  0  0
   23.9942  131.4356   -3.9379 H   0  0  0  0  0  0  0  0  0  0  0  0
   24.7293  129.9791   -4.0058 H   0  0  0  0  0  0  0  0  0  0  0  0
   21.9327  128.5987   -3.9033 H   0  0  0  0  0  0  0  0  0  0  0  0
   21.1687  130.0309   -3.7255 H   0  0  0  0  0  0  0  0  0  0  0  0
   20.7684  129.4048   -1.4041 H   0  0  0  0  0  0  0  0  0  0  0  0
   21.3002  127.9108   -1.7937 H   0  0  0  0  0  0  0  0  0  0  0  0
   19.3669  128.1754   -3.6075 H   0  0  0  0  0  0  0  0  0  0  0  0
   17.4254  128.4299   -0.0151 H   0  0  0  0  0  0  0  0  0  0  0  0
   18.9697  127.9092    0.0867 H   0  0  0  0  0  0  0  0  0  0  0  0
   18.6570  129.4873   -0.1932 H   0  0  0  0  0  0  0  0  0  0  0  0
   16.3623  128.6337   -2.1555 H   0  0  0  0  0  0  0  0  0  0  0  0
   16.7324  127.0512   -1.9961 H   0  0  0  0  0  0  0  0  0  0  0  0
   17.6205  127.0666   -4.2104 H   0  0  0  0  0  0  0  0  0  0  0  0
   17.1565  128.6249   -4.3631 H   0  0  0  0  0  0  0  0  0  0  0  0
   15.2777  126.3823   -4.0886 H   0  0  0  0  0  0  0  0  0  0  0  0
   14.1963  129.7435   -6.1350 H   0  0  0  0  0  0  0  0  0  0  0  0
   15.1452  130.0226   -4.8356 H   0  0  0  0  0  0  0  0  0  0  0  0
   15.7915  129.4010   -6.2004 H   0  0  0  0  0  0  0  0  0  0  0  0
   12.8742  128.1863   -6.0480 H   0  0  0  0  0  0  0  0  0  0  0  0
   13.4667  126.6646   -6.0486 H   0  0  0  0  0  0  0  0  0  0  0  0
   12.8236  127.2899   -4.6840 H   0  0  0  0  0  0  0  0  0  0  0  0
  2  1  1  0  0  0  0
  3  1  1  0  0  0  0
  4  3  2  0  0  0  0
  5  4  1  0  0  0  0
  6  4  1  0  0  0  0
  7  6  1  0  0  0  0
  8  7  1  0  0  0  0
  9  8  2  0  0  0  0
 10  9  1  0  0  0  0
 11  9  1  0  0  0  0
 12 11  1  0  0  0  0
 13 12  1  0  0  0  0
 14 13  2  0  0  0  0
 15 14  1  0  0  0  0
 16 14  1  0  0  0  0
 17  2  1  0  0  0  0
 18 17  2  0  0  0  0
 17 19  1  0  0  0  0
 20 17  1  0  0  0  0
 21 20  1  0  0  0  0
 22 21  2  0  0  0  0
 23 21  1  0  0  0  0
 24 21  1  0  0  0  0
  1 25  1  0  0  0  0
  1 26  1  0  0  0  0
  3 27  1  0  0  0  0
  5 28  1  0  0  0  0
  5 29  1  0  0  0  0
  5 30  1  0  0  0  0
  6 31  1  0  0  0  0
  6 32  1  0  0  0  0
  7 33  1  0  0  0  0
  7 34  1  0  0  0  0
  8 35  1  0  0  0  0
 10 36  1  0  0  0  0
 10 37  1  0  0  0  0
 10 38  1  0  0  0  0
 11 39  1  0  0  0  0
 11 40  1  0  0  0  0
 12 41  1  0  0  0  0
 12 42  1  0  0  0  0
 13 43  1  0  0  0  0
 15 44  1  0  0  0  0
 15 45  1  0  0  0  0
 15 46  1  0  0  0  0
 16 47  1  0  0  0  0
 16 48  1  0  0  0  0
 16 49  1  0  0  0  0
M  CHG  3  19  -1  23  -1  24  -1
M  END
> <BIOSOLVEIT.HYDE_ESTIMATED_AFFINITY_LOWER_BOUNDARY [nM]>
0.440750

> <BIOSOLVEIT.HYDE_ESTIMATED_AFFINITY_UPPER_BOUNDARY [nM]>
43.791095

> <BIOSOLVEIT.HYDE_LIGAND_EFFICIENCY range: ++, +, 0, -, -->
+

> <BIOSOLVEIT.HYDE_LIGAND_LIPOPHILIC_EFFICIENCY range: ++, +, 0, -, -->
+

> <BIOSOLVEIT.INTER_CLASH range: red, yellow, green>
green

> <BIOSOLVEIT.INTRA_CLASH range: red, yellow, green>
green

> <BIOSOLVEIT.LOGP>
2.7359

> <BIOSOLVEIT.MOLECULAR WEIGHT>
379.304

> <BIOSOLVEIT.MOLECULE_CHECKSUM>
LTQ3LjcwMzsxLjk4NzYz

> <BIOSOLVEIT.TORSION_QUALITY range: red, yellow, green, not rotatable>
green

> <BIOSOLVEIT.TPSA>
121.78

$$$$
