3E37_ED5
foHydescor03072119513D 1   1.00000     0.00000     0
Hydescorer 1.1.0 fol007
 85 88  0  0  0  0            999 V2000
   16.3594  -77.0210    8.4855 O   0  0  0  0  0  0  0  0  0  0  0  0
   16.6701  -77.2447    7.3177 C   0  0  0  0  0  0  0  0  0  0  0  0
   16.2062  -78.4610    6.7146 O   0  0  0  0  0  0  0  0  0  0  0  0
   15.3213  -79.3829    7.3434 C   0  0  0  0  0  0  0  0  0  0  0  0
   15.8490  -79.8940    8.6750 C   0  0  0  0  0  0  0  0  0  0  0  0
   14.0244  -78.6532    7.6082 C   0  0  0  0  0  0  0  0  0  0  0  0
   15.1731  -80.5618    6.3931 C   0  0  0  0  0  0  0  0  0  0  0  0
   17.3958  -76.4869    6.6055 N   0  0  0  0  0  0  0  0  0  0  0  0
   18.1639  -75.3824    7.1520 C   0  0  0  0  0  0  0  0  0  0  0  0
   17.5241  -74.1120    6.6262 C   0  0  0  0  0  0  0  0  0  0  0  0
   17.5185  -76.6399    5.1562 C   0  0  0  0  0  0  0  0  0  0  0  0
   16.7568  -75.4265    4.6067 C   0  0  0  0  0  0  0  0  0  0  0  0
   17.3409  -74.1000    5.1149 C   0  0  0  0  0  0  0  0  0  0  0  0
   16.3576  -72.9516    4.9197 C   0  0  0  0  0  0  0  0  0  0  0  0
   16.2635  -72.3246    3.5873 N   0  0  0  0  0  0  0  0  0  0  0  0
   14.6893  -72.1176    3.1549 S   0  0  0  0  0  0  0  0  0  0  0  0
   14.4369  -72.6442    1.7839 O   0  0  0  0  0  0  0  0  0  0  0  0
   14.5332  -70.6386    3.1663 O   0  0  0  0  0  0  0  0  0  0  0  0
   13.6031  -72.7095    4.2066 C   0  0  0  0  0  0  0  0  0  0  0  0
   13.0198  -71.8315    5.1228 C   0  0  0  0  0  0  0  0  0  0  0  0
   12.0940  -72.2793    6.0588 C   0  0  0  0  0  0  0  0  0  0  0  0
   11.7301  -73.6178    6.0892 C   0  0  0  0  0  0  0  0  0  0  0  0
   12.2981  -74.4956    5.1748 C   0  0  0  0  0  0  0  0  0  0  0  0
   13.2126  -74.0443    4.2322 C   0  0  0  0  0  0  0  0  0  0  0  0
   13.7909  -75.0295    3.2623 C   0  0  0  0  0  0  0  0  0  0  0  0
   17.2370  -72.7442    2.5302 C   0  0  0  0  0  0  0  0  0  0  0  0
   18.5670  -71.9977    2.7684 C   0  0  0  0  0  0  0  0  0  0  0  0
   19.1867  -71.6545    1.4696 N   0  0  0  0  0  0  0  0  0  0  0  0
   20.4984  -72.1174    1.2276 C   0  0  0  0  0  0  0  0  0  0  0  0
   21.0946  -71.8986   -0.0159 C   0  0  0  0  0  0  0  0  0  0  0  0
   22.3677  -72.3961   -0.2840 C   0  0  0  0  0  0  0  0  0  0  0  0
   21.1687  -72.8771    2.1884 C   0  0  0  0  0  0  0  0  0  0  0  0
   22.4411  -73.3674    1.9214 C   0  0  0  0  0  0  0  0  0  0  0  0
   23.0443  -73.1274    0.6936 C   0  0  0  0  0  0  0  0  0  0  0  0
   24.2184  -73.6128    0.4674 C   0  0  0  0  0  0  0  0  0  0  0  0
   25.2647  -74.0920    0.2816 N   0  0  0  0  0  0  0  0  0  0  0  0
   18.8899  -70.3655    0.9188 C   0  0  0  0  0  0  0  0  0  0  0  0
   18.1042  -70.4353   -0.3546 C   0  0  0  0  0  0  0  0  0  0  0  0
   17.2449  -71.4891   -0.6135 C   0  0  0  0  0  0  0  0  0  0  0  0
   16.7514  -71.1797   -1.8376 N   0  0  0  0  0  0  0  0  0  0  0  0
   17.2830  -70.0000   -2.2730 C   0  0  0  0  0  0  0  0  0  0  0  0
   18.1342  -69.5348   -1.3428 N   0  0  0  0  0  0  0  0  0  0  0  0
   18.9269  -68.2798   -1.4180 C   0  0  0  0  0  0  0  0  0  0  0  0
   15.1910  -80.5348    9.0706 H   0  0  0  0  0  0  0  0  0  0  0  0
   16.7223  -80.3596    8.5308 H   0  0  0  0  0  0  0  0  0  0  0  0
   15.9809  -79.1239    9.2991 H   0  0  0  0  0  0  0  0  0  0  0  0
   13.3772  -79.2737    8.0511 H   0  0  0  0  0  0  0  0  0  0  0  0
   14.1983  -77.8706    8.2061 H   0  0  0  0  0  0  0  0  0  0  0  0
   13.6396  -78.3324    6.7427 H   0  0  0  0  0  0  0  0  0  0  0  0
   14.5567  -81.2388    6.7952 H   0  0  0  0  0  0  0  0  0  0  0  0
   14.7966  -80.2435    5.5231 H   0  0  0  0  0  0  0  0  0  0  0  0
   16.0688  -80.9782    6.2363 H   0  0  0  0  0  0  0  0  0  0  0  0
   19.1155  -75.4405    6.8503 H   0  0  0  0  0  0  0  0  0  0  0  0
   18.1294  -75.3986    8.1513 H   0  0  0  0  0  0  0  0  0  0  0  0
   18.1040  -73.3379    6.8801 H   0  0  0  0  0  0  0  0  0  0  0  0
   16.6260  -74.0103    7.0540 H   0  0  0  0  0  0  0  0  0  0  0  0
   17.0997  -77.4946    4.8496 H   0  0  0  0  0  0  0  0  0  0  0  0
   18.4776  -76.6187    4.8738 H   0  0  0  0  0  0  0  0  0  0  0  0
   15.8008  -75.4889    4.8935 H   0  0  0  0  0  0  0  0  0  0  0  0
   16.8068  -75.4394    3.6080 H   0  0  0  0  0  0  0  0  0  0  0  0
   18.2079  -73.9008    4.6581 H   0  0  0  0  0  0  0  0  0  0  0  0
   16.6108  -72.2328    5.5672 H   0  0  0  0  0  0  0  0  0  0  0  0
   15.4482  -73.2998    5.1472 H   0  0  0  0  0  0  0  0  0  0  0  0
   13.2723  -70.8641    5.1053 H   0  0  0  0  0  0  0  0  0  0  0  0
   11.6905  -71.6366    6.7100 H   0  0  0  0  0  0  0  0  0  0  0  0
   11.0668  -73.9466    6.7615 H   0  0  0  0  0  0  0  0  0  0  0  0
   12.0457  -75.4630    5.1955 H   0  0  0  0  0  0  0  0  0  0  0  0
   14.4282  -74.5604    2.6509 H   0  0  0  0  0  0  0  0  0  0  0  0
   14.2762  -75.7455    3.7640 H   0  0  0  0  0  0  0  0  0  0  0  0
   13.0542  -75.4398    2.7249 H   0  0  0  0  0  0  0  0  0  0  0  0
   16.8761  -72.5114    1.6271 H   0  0  0  0  0  0  0  0  0  0  0  0
   17.3894  -73.7311    2.5841 H   0  0  0  0  0  0  0  0  0  0  0  0
   19.1884  -72.5836    3.2886 H   0  0  0  0  0  0  0  0  0  0  0  0
   18.3897  -71.1593    3.2839 H   0  0  0  0  0  0  0  0  0  0  0  0
   20.6049  -71.3818   -0.7181 H   0  0  0  0  0  0  0  0  0  0  0  0
   22.7950  -72.2301   -1.1728 H   0  0  0  0  0  0  0  0  0  0  0  0
   20.7333  -73.0682    3.0681 H   0  0  0  0  0  0  0  0  0  0  0  0
   22.9257  -73.8967    2.6178 H   0  0  0  0  0  0  0  0  0  0  0  0
   19.7515  -69.8921    0.7353 H   0  0  0  0  0  0  0  0  0  0  0  0
   18.3611  -69.8468    1.5906 H   0  0  0  0  0  0  0  0  0  0  0  0
   17.0391  -72.2819   -0.0399 H   0  0  0  0  0  0  0  0  0  0  0  0
   17.0731  -69.5542   -3.1432 H   0  0  0  0  0  0  0  0  0  0  0  0
   19.4754  -68.1817   -0.5875 H   0  0  0  0  0  0  0  0  0  0  0  0
   19.5309  -68.3143   -2.2142 H   0  0  0  0  0  0  0  0  0  0  0  0
   18.3078  -67.4991   -1.5027 H   0  0  0  0  0  0  0  0  0  0  0  0
  2  1  2  0  0  0  0
  3  2  1  0  0  0  0
  4  3  1  0  0  0  0
  5  4  1  0  0  0  0
  6  4  1  0  0  0  0
  7  4  1  0  0  0  0
  8  2  1  0  0  0  0
  9  8  1  0  0  0  0
 10  9  1  0  0  0  0
 11  8  1  0  0  0  0
 12 11  1  0  0  0  0
 13 12  1  0  0  0  0
 13 10  1  0  0  0  0
 14 13  1  0  0  0  0
 15 14  1  0  0  0  0
 16 15  1  0  0  0  0
 17 16  2  0  0  0  0
 18 16  2  0  0  0  0
 19 16  1  0  0  0  0
 20 19  2  0  0  0  0
 21 20  1  0  0  0  0
 22 21  2  0  0  0  0
 23 22  1  0  0  0  0
 24 23  2  0  0  0  0
 24 19  1  0  0  0  0
 25 24  1  0  0  0  0
 26 15  1  0  0  0  0
 27 26  1  0  0  0  0
 28 27  1  0  0  0  0
 29 28  1  0  0  0  0
 30 29  2  0  0  0  0
 31 30  1  0  0  0  0
 32 29  1  0  0  0  0
 33 32  2  0  0  0  0
 34 33  1  0  0  0  0
 34 31  2  0  0  0  0
 35 34  1  0  0  0  0
 36 35  3  0  0  0  0
 37 28  1  0  0  0  0
 38 37  1  0  0  0  0
 39 38  2  0  0  0  0
 40 39  1  0  0  0  0
 41 40  2  0  0  0  0
 42 41  1  0  0  0  0
 42 38  1  0  0  0  0
 43 42  1  0  0  0  0
  5 44  1  0  0  0  0
  5 45  1  0  0  0  0
  5 46  1  0  0  0  0
  6 47  1  0  0  0  0
  6 48  1  0  0  0  0
  6 49  1  0  0  0  0
  7 50  1  0  0  0  0
  7 51  1  0  0  0  0
  7 52  1  0  0  0  0
  9 53  1  0  0  0  0
  9 54  1  0  0  0  0
 10 55  1  0  0  0  0
 10 56  1  0  0  0  0
 11 57  1  0  0  0  0
 11 58  1  0  0  0  0
 12 59  1  0  0  0  0
 12 60  1  0  0  0  0
 13 61  1  0  0  0  0
 14 62  1  0  0  0  0
 14 63  1  0  0  0  0
 20 64  1  0  0  0  0
 21 65  1  0  0  0  0
 22 66  1  0  0  0  0
 23 67  1  0  0  0  0
 25 68  1  0  0  0  0
 25 69  1  0  0  0  0
 25 70  1  0  0  0  0
 26 71  1  0  0  0  0
 26 72  1  0  0  0  0
 27 73  1  0  0  0  0
 27 74  1  0  0  0  0
 30 75  1  0  0  0  0
 31 76  1  0  0  0  0
 32 77  1  0  0  0  0
 33 78  1  0  0  0  0
 37 79  1  0  0  0  0
 37 80  1  0  0  0  0
 39 81  1  0  0  0  0
 41 82  1  0  0  0  0
 43 83  1  0  0  0  0
 43 84  1  0  0  0  0
 43 85  1  0  0  0  0
M  END
> <BIOSOLVEIT.HYDE_ESTIMATED_AFFINITY_LOWER_BOUNDARY [nM]>
0.001131

> <BIOSOLVEIT.HYDE_ESTIMATED_AFFINITY_UPPER_BOUNDARY [nM]>
0.112334

> <BIOSOLVEIT.HYDE_LIGAND_EFFICIENCY range: ++, +, 0, -, -->
0

> <BIOSOLVEIT.HYDE_LIGAND_LIPOPHILIC_EFFICIENCY range: ++, +, 0, -, -->
+

> <BIOSOLVEIT.INTER_CLASH range: red, yellow, green>
green

> <BIOSOLVEIT.INTRA_CLASH range: red, yellow, green>
green

> <BIOSOLVEIT.LOGP>
5.5954

> <BIOSOLVEIT.MOLECULAR WEIGHT>
606.787

> <BIOSOLVEIT.MOLECULE_CHECKSUM>
LTYyLjQ5MTg7MS40NTMz

> <BIOSOLVEIT.TORSION_QUALITY range: red, yellow, green, not rotatable>
red

> <BIOSOLVEIT.TPSA>
111.77

$$$$
