1BNW_TPD
foHydescor03072114473D 1   1.00000     0.00000     0
Hydescorer 1.1.0 fol007
 28 29  0  0  0  0            999 V2000
   -5.0986    2.1592   15.7644 C   0  0  0  0  0  0  0  0  0  0  0  0
   -2.8433    6.5452   13.9938 C   0  0  0  0  0  0  0  0  0  0  0  0
   -2.5390    7.9581   14.0890 C   0  0  0  0  0  0  0  0  0  0  0  0
   -2.5406    8.8128   13.0036 C   0  0  0  0  0  0  0  0  0  0  0  0
   -2.2859   10.1103   13.3862 C   0  0  0  0  0  0  0  0  0  0  0  0
   -2.0795   10.2720   14.7462 C   0  0  0  0  0  0  0  0  0  0  0  0
   -5.2251    1.0583   18.0603 O   0  0  0  0  0  0  0  0  0  0  0  0
   -7.1591    1.1668   16.7786 O   0  0  0  0  0  0  0  0  0  0  0  0
   -5.4032   -0.4054   16.1329 N   0  5  0  0  0  0  0  0  0  0  0  0
   -5.7583    0.9056   16.7426 S   0  0  0  0  0  0  0  0  0  0  0  0
   -3.7789    2.4809   15.6808 C   0  0  0  0  0  0  0  0  0  0  0  0
   -3.5742    3.5467   14.8437 C   0  0  0  0  0  0  0  0  0  0  0  0
   -4.7345    4.0349   14.2887 C   0  0  0  0  0  0  0  0  0  0  0  0
   -6.1018    3.1683   14.8040 S   0  0  0  0  0  0  0  0  0  0  0  0
   -4.9151    5.3588   13.1805 S   0  0  0  0  0  0  0  0  0  0  0  0
   -4.3280    4.9514   11.9384 O   0  0  0  0  0  0  0  0  0  0  0  0
   -6.3185    5.6063   13.0014 O   0  0  0  0  0  0  0  0  0  0  0  0
   -4.2858    6.5789   13.7722 N   0  0  0  0  0  0  0  0  0  0  0  0
   -2.2049    8.7603   15.5908 S   0  0  0  0  0  0  0  0  0  0  0  0
   -2.6137    6.0633   14.8394 H   0  0  0  0  0  0  0  0  0  0  0  0
   -2.3647    6.1184   13.2264 H   0  0  0  0  0  0  0  0  0  0  0  0
   -2.7057    8.5254   12.0601 H   0  0  0  0  0  0  0  0  0  0  0  0
   -2.2528   10.8709   12.7377 H   0  0  0  0  0  0  0  0  0  0  0  0
   -1.8832   11.1484   15.1860 H   0  0  0  0  0  0  0  0  0  0  0  0
   -4.6001   -0.7814   16.5951 H   0  0  0  0  0  0  0  0  0  0  0  0
   -3.0503    2.0002   16.1687 H   0  0  0  0  0  0  0  0  0  0  0  0
   -2.6706    3.9315   14.6551 H   0  0  0  0  0  0  0  0  0  0  0  0
   -4.7222    6.7435   14.6568 H   0  0  0  0  0  0  0  0  0  0  0  0
  3  2  1  0  0  0  0
  4  3  2  0  0  0  0
  5  4  1  0  0  0  0
  6  5  2  0  0  0  0
 10  8  2  0  0  0  0
 10  7  2  0  0  0  0
 10  9  1  0  0  0  0
 10  1  1  0  0  0  0
 11  1  2  0  0  0  0
 12 11  1  0  0  0  0
 13 12  2  0  0  0  0
 14 13  1  0  0  0  0
 14  1  1  0  0  0  0
 15 13  1  0  0  0  0
 16 15  2  0  0  0  0
 17 15  2  0  0  0  0
 18 15  1  0  0  0  0
 18  2  1  0  0  0  0
 19  6  1  0  0  0  0
 19  3  1  0  0  0  0
  2 20  1  0  0  0  0
  2 21  1  0  0  0  0
  4 22  1  0  0  0  0
  5 23  1  0  0  0  0
  6 24  1  0  0  0  0
 18 28  1  0  0  0  0
  9 25  1  0  0  0  0
 11 26  1  0  0  0  0
 12 27  1  0  0  0  0
M  CHG  1   9  -1
M  END
> <BIOSOLVEIT.HYDE_ESTIMATED_AFFINITY_LOWER_BOUNDARY [nM]>
13.827075

> <BIOSOLVEIT.HYDE_ESTIMATED_AFFINITY_UPPER_BOUNDARY [nM]>
1373.801609

> <BIOSOLVEIT.HYDE_LIGAND_EFFICIENCY range: ++, +, 0, -, -->
+

> <BIOSOLVEIT.HYDE_LIGAND_LIPOPHILIC_EFFICIENCY range: ++, +, 0, -, -->
0

> <BIOSOLVEIT.INTER_CLASH range: red, yellow, green>
green

> <BIOSOLVEIT.INTRA_CLASH range: red, yellow, green>
green

> <BIOSOLVEIT.LOGP>
3.3302

> <BIOSOLVEIT.MOLECULAR WEIGHT>
337.44

> <BIOSOLVEIT.MOLECULE_CHECKSUM>
LTM5LjE2MDg7Mi4wNjEwOQ==

> <BIOSOLVEIT.TORSION_QUALITY range: red, yellow, green, not rotatable>
yellow

> <BIOSOLVEIT.TPSA>
80.31

$$$$
