1CNY_EG3
foHydescor03072114483D 1   1.00000     0.00000     0
Hydescorer 1.1.0 fol007
 63 64  0  0  0  0            999 V2000
   -5.9854    0.7559   17.0484 S   0  0  0  0  0  0  0  0  0  0  0  0
   -5.2889    0.6238   18.3352 O   0  0  0  0  0  0  0  0  0  0  0  0
   -7.3985    0.6856   17.2141 O   0  0  0  0  0  0  0  0  0  0  0  0
   -5.4427   -0.3766   16.2744 N   0  5  0  0  0  0  0  0  0  0  0  0
   -4.9769    4.3961   14.6612 C   0  0  0  0  0  0  0  0  0  0  0  0
   -4.0134    3.4372   14.9477 C   0  0  0  0  0  0  0  0  0  0  0  0
   -4.3012    2.3132   15.6695 C   0  0  0  0  0  0  0  0  0  0  0  0
   -5.5951    2.1430   16.1086 C   0  0  0  0  0  0  0  0  0  0  0  0
   -6.5557    3.0600   15.8207 C   0  0  0  0  0  0  0  0  0  0  0  0
   -6.2719    4.2258   15.0994 C   0  0  0  0  0  0  0  0  0  0  0  0
   -4.6424    5.4823   13.9353 C   0  0  0  0  0  0  0  0  0  0  0  0
   -5.3694    6.2768   13.2691 O   0  0  0  0  0  0  0  0  0  0  0  0
   -3.2376    5.9703   13.7059 N   0  0  0  0  0  0  0  0  0  0  0  0
   -3.0450    6.9858   12.6036 C   0  0  0  0  0  0  0  0  0  0  0  0
   -2.5431    8.3173   13.0967 C   0  0  0  0  0  0  0  0  0  0  0  0
   -1.4844    8.2741   13.8602 O   0  0  0  0  0  0  0  0  0  0  0  0
   -1.4303    9.0244   15.2450 C   0  0  0  0  0  0  0  0  0  0  0  0
   -1.3127   10.5316   14.9227 C   0  0  0  0  0  0  0  0  0  0  0  0
   -0.3352   11.1628   15.8143 O   0  0  0  0  0  0  0  0  0  0  0  0
    1.0583   10.6701   15.4835 C   0  0  0  0  0  0  0  0  0  0  0  0
    2.0218   11.1922   16.4222 C   0  0  0  0  0  0  0  0  0  0  0  0
    3.2984   10.5651   16.1239 N   0  0  0  0  0  0  0  0  0  0  0  0
    4.1692   10.5684   17.3728 C   0  0  0  0  0  0  0  0  0  0  0  0
    3.7514   11.0461   18.4334 O   0  0  0  0  0  0  0  0  0  0  0  0
    5.5134    9.8789   17.3488 C   0  0  1  0  0  0  0  0  0  0  0  0
    6.5778   10.8764   16.9645 N   0  3  0  0  0  0  0  0  0  0  0  0
    5.8779    9.1843   18.6641 C   0  0  0  0  0  0  0  0  0  0  0  0
    7.0711    8.2214   18.4932 C   0  0  0  0  0  0  0  0  0  0  0  0
    6.8029    6.9351   17.9862 C   0  0  0  0  0  0  0  0  0  0  0  0
    7.8698    6.0335   17.8092 C   0  0  0  0  0  0  0  0  0  0  0  0
    9.1215    6.4068   18.1308 C   0  0  0  0  0  0  0  0  0  0  0  0
    9.3909    7.6932   18.6400 C   0  0  0  0  0  0  0  0  0  0  0  0
    8.3126    8.5725   18.8491 C   0  0  0  0  0  0  0  0  0  0  0  0
   -4.5790   -0.6747   16.6808 H   0  0  0  0  0  0  0  0  0  0  0  0
   -3.0801    3.5738   14.6154 H   0  0  0  0  0  0  0  0  0  0  0  0
   -3.5944    1.6355   15.8725 H   0  0  0  0  0  0  0  0  0  0  0  0
   -7.4917    2.8976   16.1329 H   0  0  0  0  0  0  0  0  0  0  0  0
   -6.9795    4.9065   14.9101 H   0  0  0  0  0  0  0  0  0  0  0  0
   -2.4703    5.6393   14.2551 H   0  0  0  0  0  0  0  0  0  0  0  0
   -3.9232    7.1277   12.1467 H   0  0  0  0  0  0  0  0  0  0  0  0
   -2.3835    6.6206   11.9486 H   0  0  0  0  0  0  0  0  0  0  0  0
   -3.2796    8.7504   13.6163 H   0  0  0  0  0  0  0  0  0  0  0  0
   -2.3240    8.8782   12.2984 H   0  0  0  0  0  0  0  0  0  0  0  0
   -0.6365    8.7207   15.7718 H   0  0  0  0  0  0  0  0  0  0  0  0
   -2.2646    8.8467   15.7670 H   0  0  0  0  0  0  0  0  0  0  0  0
   -2.2042   10.9671   15.0480 H   0  0  0  0  0  0  0  0  0  0  0  0
   -1.0167   10.6448   13.9742 H   0  0  0  0  0  0  0  0  0  0  0  0
    1.3024   10.9708   14.5616 H   0  0  0  0  0  0  0  0  0  0  0  0
    1.0707    9.6709   15.5224 H   0  0  0  0  0  0  0  0  0  0  0  0
    1.7426   10.9726   17.3570 H   0  0  0  0  0  0  0  0  0  0  0  0
    2.0956   12.1842   16.3207 H   0  0  0  0  0  0  0  0  0  0  0  0
    3.5638   10.1896   15.2360 H   0  0  0  0  0  0  0  0  0  0  0  0
    5.4822    9.1791   16.6352 H   0  0  0  0  0  0  0  0  0  0  0  0
    6.8548   11.3962   17.7726 H   0  0  0  0  0  0  0  0  0  0  0  0
    7.3695   10.3922   16.5921 H   0  0  0  0  0  0  0  0  0  0  0  0
    5.0864    8.6647   18.9857 H   0  0  0  0  0  0  0  0  0  0  0  0
    6.1178    9.8797   19.3415 H   0  0  0  0  0  0  0  0  0  0  0  0
    5.8679    6.6659   17.7552 H   0  0  0  0  0  0  0  0  0  0  0  0
    7.6976    5.1181   17.4453 H   0  0  0  0  0  0  0  0  0  0  0  0
    9.8742    5.7603   18.0064 H   0  0  0  0  0  0  0  0  0  0  0  0
   10.3276    7.9747   18.8481 H   0  0  0  0  0  0  0  0  0  0  0  0
    8.4750    9.4665   19.2666 H   0  0  0  0  0  0  0  0  0  0  0  0
    6.2146   11.5020   16.2740 H   0  0  0  0  0  0  0  0  0  0  0  0
  2  1  2  0  0  0  0
  3  1  2  0  0  0  0
  4  1  1  0  0  0  0
  6  5  2  0  0  0  0
  7  6  1  0  0  0  0
  8  1  1  0  0  0  0
  8  7  2  0  0  0  0
  9  8  1  0  0  0  0
 10  9  2  0  0  0  0
 10  5  1  0  0  0  0
 11  5  1  0  0  0  0
 12 11  2  0  0  0  0
 13 11  1  0  0  0  0
 14 13  1  0  0  0  0
 15 14  1  0  0  0  0
 16 15  1  0  0  0  0
 17 16  1  0  0  0  0
 18 17  1  0  0  0  0
 19 18  1  0  0  0  0
 20 19  1  0  0  0  0
 21 20  1  0  0  0  0
 22 21  1  0  0  0  0
 23 22  1  0  0  0  0
 24 23  2  0  0  0  0
 25 23  1  0  0  0  0
 25 26  1  0  0  0  0
 27 25  1  0  0  0  0
 28 27  1  0  0  0  0
 29 28  2  0  0  0  0
 30 29  1  0  0  0  0
 31 30  2  0  0  0  0
 32 31  1  0  0  0  0
 33 32  2  0  0  0  0
 33 28  1  0  0  0  0
 26 63  1  0  0  0  0
  4 34  1  0  0  0  0
  6 35  1  0  0  0  0
  7 36  1  0  0  0  0
  9 37  1  0  0  0  0
 10 38  1  0  0  0  0
 13 39  1  0  0  0  0
 14 40  1  0  0  0  0
 14 41  1  0  0  0  0
 15 42  1  0  0  0  0
 15 43  1  0  0  0  0
 17 44  1  0  0  0  0
 17 45  1  0  0  0  0
 18 46  1  0  0  0  0
 18 47  1  0  0  0  0
 20 48  1  0  0  0  0
 20 49  1  0  0  0  0
 21 50  1  0  0  0  0
 21 51  1  0  0  0  0
 22 52  1  0  0  0  0
 25 53  1  0  0  0  0
 26 54  1  0  0  0  0
 26 55  1  0  0  0  0
 27 56  1  0  0  0  0
 27 57  1  0  0  0  0
 29 58  1  0  0  0  0
 30 59  1  0  0  0  0
 31 60  1  0  0  0  0
 32 61  1  0  0  0  0
 33 62  1  0  0  0  0
M  CHG  2   4  -1  26   1
M  END
> <BIOSOLVEIT.HYDE_ESTIMATED_AFFINITY_LOWER_BOUNDARY [nM]>
13.712561

> <BIOSOLVEIT.HYDE_ESTIMATED_AFFINITY_UPPER_BOUNDARY [nM]>
1362.423965

> <BIOSOLVEIT.HYDE_LIGAND_EFFICIENCY range: ++, +, 0, -, -->
-

> <BIOSOLVEIT.HYDE_LIGAND_LIPOPHILIC_EFFICIENCY range: ++, +, 0, -, -->
+

> <BIOSOLVEIT.INTER_CLASH range: red, yellow, green>
green

> <BIOSOLVEIT.INTRA_CLASH range: red, yellow, green>
green

> <BIOSOLVEIT.LOGP>
0.8105

> <BIOSOLVEIT.MOLECULAR WEIGHT>
478.566

> <BIOSOLVEIT.MOLECULE_CHECKSUM>
LTM5LjE4MTQ7MS4xODczMg==

> <BIOSOLVEIT.TORSION_QUALITY range: red, yellow, green, not rotatable>
red

> <BIOSOLVEIT.TPSA>
138.44

$$$$
