1OKN_STB
foHydescor03072114473D 1   1.00000     0.00000     0
Hydescorer 1.1.0 fol007
 39 39  0  0  0  0            999 V2000
   -4.8226    4.5601   14.8789 C   0  0  0  0  0  0  0  0  0  0  0  0
   -6.2150    4.3546   15.2210 C   0  0  0  0  0  0  0  0  0  0  0  0
   -6.6181    3.1523   15.9342 C   0  0  0  0  0  0  0  0  0  0  0  0
   -5.6319    2.1479   16.3071 C   0  0  0  0  0  0  0  0  0  0  0  0
   -4.2405    2.3575   15.9430 C   0  0  0  0  0  0  0  0  0  0  0  0
   -3.8374    3.5588   15.2338 C   0  0  0  0  0  0  0  0  0  0  0  0
   -4.4012    5.8126   14.2517 C   0  0  0  0  0  0  0  0  0  0  0  0
   -5.0778    6.5330   13.6049 O   0  0  0  0  0  0  0  0  0  0  0  0
   -3.0134    6.2473   14.4434 N   0  0  0  0  0  0  0  0  0  0  0  0
   -2.5786    7.5155   13.8056 C   0  0  0  0  0  0  0  0  0  0  0  0
   -1.8655    8.4272   14.8160 C   0  0  0  0  0  0  0  0  0  0  0  0
   -1.4314    9.7531   14.1699 C   0  0  0  0  0  0  0  0  0  0  0  0
   -0.7383   10.6874   15.1853 C   0  0  0  0  0  0  0  0  0  0  0  0
    0.7234   10.7564   14.9297 N   0  3  0  0  0  0  0  0  0  0  0  0
    1.3337   10.9801   16.2383 C   0  0  0  0  0  0  0  0  0  0  0  0
    3.0155   10.8738   16.5804 S   0  0  0  0  0  0  0  0  0  0  0  0
   -6.0736    0.7962   17.2187 S   0  0  0  0  0  0  0  0  0  0  0  0
   -5.4693    0.7179   18.4691 O   0  0  0  0  0  0  0  0  0  0  0  0
   -7.6195    0.9483   17.2626 O   0  0  0  0  0  0  0  0  0  0  0  0
   -5.5908   -0.3629   16.4399 N   0  5  0  0  0  0  0  0  0  0  0  0
   -6.8988    5.0387   14.9672 H   0  0  0  0  0  0  0  0  0  0  0  0
   -7.5801    3.0144   16.1701 H   0  0  0  0  0  0  0  0  0  0  0  0
   -3.5558    1.6693   16.1827 H   0  0  0  0  0  0  0  0  0  0  0  0
   -2.8773    3.6953   14.9897 H   0  0  0  0  0  0  0  0  0  0  0  0
   -2.3765    5.7034   14.9896 H   0  0  0  0  0  0  0  0  0  0  0  0
   -3.3808    7.9917   13.4456 H   0  0  0  0  0  0  0  0  0  0  0  0
   -1.9513    7.3055   13.0557 H   0  0  0  0  0  0  0  0  0  0  0  0
   -1.0557    7.9552   15.1646 H   0  0  0  0  0  0  0  0  0  0  0  0
   -2.4886    8.6233   15.5731 H   0  0  0  0  0  0  0  0  0  0  0  0
   -2.2398   10.2149   13.8049 H   0  0  0  0  0  0  0  0  0  0  0  0
   -0.7947    9.5565   13.4243 H   0  0  0  0  0  0  0  0  0  0  0  0
   -0.8930   10.3387   16.1098 H   0  0  0  0  0  0  0  0  0  0  0  0
   -1.1284   11.6047   15.1055 H   0  0  0  0  0  0  0  0  0  0  0  0
    0.9354   11.5126   14.3106 H   0  0  0  0  0  0  0  0  0  0  0  0
    0.8960   10.3223   16.8513 H   0  0  0  0  0  0  0  0  0  0  0  0
    1.0677   11.9078   16.5002 H   0  0  0  0  0  0  0  0  0  0  0  0
    3.1638   10.9882   17.5627 H   0  0  0  0  0  0  0  0  0  0  0  0
   -4.8069   -0.7740   16.9053 H   0  0  0  0  0  0  0  0  0  0  0  0
    1.0505    9.8988   14.5328 H   0  0  0  0  0  0  0  0  0  0  0  0
  2  1  2  0  0  0  0
  3  2  1  0  0  0  0
  4  3  2  0  0  0  0
  5  4  1  0  0  0  0
  6  5  2  0  0  0  0
  6  1  1  0  0  0  0
  7  1  1  0  0  0  0
  8  7  2  0  0  0  0
  9  7  1  0  0  0  0
 10  9  1  0  0  0  0
 11 10  1  0  0  0  0
 12 11  1  0  0  0  0
 13 12  1  0  0  0  0
 14 13  1  0  0  0  0
 15 14  1  0  0  0  0
 16 15  1  0  0  0  0
 17  4  1  0  0  0  0
 18 17  2  0  0  0  0
 19 17  2  0  0  0  0
 20 17  1  0  0  0  0
  2 21  1  0  0  0  0
  3 22  1  0  0  0  0
  5 23  1  0  0  0  0
  6 24  1  0  0  0  0
  9 25  1  0  0  0  0
 10 26  1  0  0  0  0
 10 27  1  0  0  0  0
 11 28  1  0  0  0  0
 11 29  1  0  0  0  0
 12 30  1  0  0  0  0
 12 31  1  0  0  0  0
 13 32  1  0  0  0  0
 13 33  1  0  0  0  0
 14 34  1  0  0  0  0
 15 35  1  0  0  0  0
 15 36  1  0  0  0  0
 16 37  1  0  0  0  0
 14 39  1  0  0  0  0
 20 38  1  0  0  0  0
M  CHG  2  14   1  20  -1
M  END
> <BIOSOLVEIT.HYDE_ESTIMATED_AFFINITY_LOWER_BOUNDARY [nM]>
5.783343

> <BIOSOLVEIT.HYDE_ESTIMATED_AFFINITY_UPPER_BOUNDARY [nM]>
574.609341

> <BIOSOLVEIT.HYDE_LIGAND_EFFICIENCY range: ++, +, 0, -, -->
+

> <BIOSOLVEIT.HYDE_LIGAND_LIPOPHILIC_EFFICIENCY range: ++, +, 0, -, -->
+

> <BIOSOLVEIT.INTER_CLASH range: red, yellow, green>
green

> <BIOSOLVEIT.INTRA_CLASH range: red, yellow, green>
green

> <BIOSOLVEIT.LOGP>
1.419

> <BIOSOLVEIT.MOLECULAR WEIGHT>
317.43

> <BIOSOLVEIT.MOLECULE_CHECKSUM>
LTQxLjMyMTY7Mi4wNjYwOA==

> <BIOSOLVEIT.TORSION_QUALITY range: red, yellow, green, not rotatable>
red

> <BIOSOLVEIT.TPSA>
79.85

$$$$
