3T85_SG7
foHydescor03072114473D 1   1.00000     0.00000     0
Hydescorer 1.1.0 fol007
 39 39  0  0  0  0            999 V2000
   16.7758    1.9717   11.7509 C   0  0  1  0  0  0  0  0  0  0  0  0
   16.7080    2.0489   13.1931 O   0  0  0  0  0  0  0  0  0  0  0  0
   16.5792    3.2733   11.0145 C   0  0  2  0  0  0  0  0  0  0  0  0
   17.1424    4.4447   11.6650 C   0  0  2  0  0  0  0  0  0  0  0  0
   16.9020    4.4864   13.0876 C   0  0  1  0  0  0  0  0  0  0  0  0
   17.3563    3.1942   13.7176 C   0  0  1  0  0  0  0  0  0  0  0  0
   17.9532    1.3765   11.3771 O   0  0  0  0  0  0  0  0  0  0  0  0
   15.1902    3.4664   10.8695 O   0  0  0  0  0  0  0  0  0  0  0  0
   16.5476    5.6098   11.1234 O   0  0  0  0  0  0  0  0  0  0  0  0
   17.0644    6.1541   10.0985 C   0  0  0  0  0  0  0  0  0  0  0  0
   16.4866    7.4311    9.5438 C   0  0  0  0  0  0  0  0  0  0  0  0
   18.0714    5.6318    9.5786 O   0  0  0  0  0  0  0  0  0  0  0  0
   17.6540    5.5162   13.6728 O   0  0  0  0  0  0  0  0  0  0  0  0
   18.0537    7.7764   14.4581 C   0  0  0  0  0  0  0  0  0  0  0  0
   17.1516    6.5809   14.2416 C   0  0  0  0  0  0  0  0  0  0  0  0
   15.8882    6.7482   14.2992 O   0  0  0  0  0  0  0  0  0  0  0  0
   17.2502    2.8198   15.1822 C   0  0  0  0  0  0  0  0  0  0  0  0
   16.1965    3.4491   15.8456 O   0  0  0  0  0  0  0  0  0  0  0  0
   15.3564    2.6788   16.8051 S   0  0  0  0  0  0  0  0  0  0  0  0
   14.2008    3.2761   17.4984 O   0  0  0  0  0  0  0  0  0  0  0  0
   16.2779    2.9639   17.9140 O   0  0  0  0  0  0  0  0  0  0  0  0
   15.4606    1.1310   16.7552 N   0  0  0  0  0  0  0  0  0  0  0  0
   16.0389    1.3615   11.4598 H   0  0  0  0  0  0  0  0  0  0  0  0
   16.9854    3.1886   10.1046 H   0  0  0  0  0  0  0  0  0  0  0  0
   18.1279    4.4712   11.4977 H   0  0  0  0  0  0  0  0  0  0  0  0
   15.9286    4.6301   13.2659 H   0  0  0  0  0  0  0  0  0  0  0  0
   18.3223    3.0968   13.4785 H   0  0  0  0  0  0  0  0  0  0  0  0
   18.0218    0.4755   11.8055 H   0  0  0  0  0  0  0  0  0  0  0  0
   14.8588    2.9321   10.0918 H   0  0  0  0  0  0  0  0  0  0  0  0
   17.0137    7.7152    8.7429 H   0  0  0  0  0  0  0  0  0  0  0  0
   15.5343    7.2788    9.2793 H   0  0  0  0  0  0  0  0  0  0  0  0
   16.5284    8.1465   10.2413 H   0  0  0  0  0  0  0  0  0  0  0  0
   17.5358    8.5093   14.8992 H   0  0  0  0  0  0  0  0  0  0  0  0
   18.8218    7.5131   15.0419 H   0  0  0  0  0  0  0  0  0  0  0  0
   18.3998    8.0968   13.5763 H   0  0  0  0  0  0  0  0  0  0  0  0
   18.1049    3.0724   15.6357 H   0  0  0  0  0  0  0  0  0  0  0  0
   17.1183    1.8306   15.2467 H   0  0  0  0  0  0  0  0  0  0  0  0
   16.4234    0.8627   16.7206 H   0  0  0  0  0  0  0  0  0  0  0  0
   15.0353    0.7417   17.5722 H   0  0  0  0  0  0  0  0  0  0  0  0
  2  1  1  0  0  0  0
  3  1  1  0  0  0  0
  4  3  1  0  0  0  0
  5  4  1  0  0  0  0
  6  5  1  0  0  0  0
  6  2  1  0  0  0  0
  1  7  1  0  0  0  0
  3  8  1  0  0  0  0
  4  9  1  0  0  0  0
 10  9  1  0  0  0  0
 11 10  1  0  0  0  0
 12 10  2  0  0  0  0
  5 13  1  0  0  0  0
 15 14  1  0  0  0  0
 15 13  1  0  0  0  0
 16 15  2  0  0  0  0
  6 17  1  0  0  0  0
 18 17  1  0  0  0  0
 19 18  1  0  0  0  0
 20 19  2  0  0  0  0
 21 19  2  0  0  0  0
 22 19  1  0  0  0  0
  1 23  1  0  0  0  0
  3 24  1  0  0  0  0
  4 25  1  0  0  0  0
  5 26  1  0  0  0  0
  6 27  1  0  0  0  0
  7 28  1  0  0  0  0
  8 29  1  0  0  0  0
 11 30  1  0  0  0  0
 11 31  1  0  0  0  0
 11 32  1  0  0  0  0
 14 33  1  0  0  0  0
 14 34  1  0  0  0  0
 14 35  1  0  0  0  0
 17 36  1  0  0  0  0
 17 37  1  0  0  0  0
 22 38  1  0  0  0  0
 22 39  1  0  0  0  0
M  END
> <BIOSOLVEIT.HYDE_ESTIMATED_AFFINITY_LOWER_BOUNDARY [nM]>
161526.213734

> <BIOSOLVEIT.HYDE_ESTIMATED_AFFINITY_UPPER_BOUNDARY [nM]>
16048584.353017

> <BIOSOLVEIT.HYDE_LIGAND_EFFICIENCY range: ++, +, 0, -, -->
--

> <BIOSOLVEIT.HYDE_LIGAND_LIPOPHILIC_EFFICIENCY range: ++, +, 0, -, -->
0

> <BIOSOLVEIT.INTER_CLASH range: red, yellow, green>
green

> <BIOSOLVEIT.INTRA_CLASH range: red, yellow, green>
green

> <BIOSOLVEIT.LOGP>
-2.2014

> <BIOSOLVEIT.MOLECULAR WEIGHT>
343.306

> <BIOSOLVEIT.MOLECULE_CHECKSUM>
LTE1Ljk0MzQ7MC43MjQ2OTk=

> <BIOSOLVEIT.TORSION_QUALITY range: red, yellow, green, not rotatable>
yellow

> <BIOSOLVEIT.TPSA>
171.68

$$$$
