1FPU_PRC
foHydescor03072119513D 1   1.00000     0.00000     0
Hydescorer 1.1.0 fol007
 47 50  0  0  0  0            999 V2000
   11.4672   61.3980   12.7837 C   0  0  0  0  0  0  0  0  0  0  0  0
   10.4623   60.8391   11.9686 C   0  0  0  0  0  0  0  0  0  0  0  0
   10.5970   59.5806   11.4876 N   0  0  0  0  0  0  0  0  0  0  0  0
   11.6848   58.8106   11.7600 C   0  0  0  0  0  0  0  0  0  0  0  0
   12.7330   59.3111   12.5738 C   0  0  0  0  0  0  0  0  0  0  0  0
   12.6131   60.6203   13.0861 C   0  0  0  0  0  0  0  0  0  0  0  0
   13.8747   58.4691   12.8431 C   0  0  0  0  0  0  0  0  0  0  0  0
   13.7407   57.1204   12.6707 N   0  0  0  0  0  0  0  0  0  0  0  0
   14.7221   56.2477   12.8825 C   0  0  0  0  0  0  0  0  0  0  0  0
   15.9396   56.7270   13.2962 N   0  0  0  0  0  0  0  0  0  0  0  0
   16.1611   58.0510   13.4939 C   0  0  0  0  0  0  0  0  0  0  0  0
   15.1191   58.9664   13.2689 C   0  0  0  0  0  0  0  0  0  0  0  0
   14.5493   54.9245   12.7033 N   0  0  0  0  0  0  0  0  0  0  0  0
   15.6014   54.0056   12.6487 C   0  0  0  0  0  0  0  0  0  0  0  0
   15.7281   53.0882   13.7444 C   0  0  0  0  0  0  0  0  0  0  0  0
   16.7816   52.1215   13.7495 C   0  0  0  0  0  0  0  0  0  0  0  0
   17.6514   52.0896   12.6784 C   0  0  0  0  0  0  0  0  0  0  0  0
   17.5306   52.9871   11.6072 C   0  0  0  0  0  0  0  0  0  0  0  0
   16.4942   53.9479   11.5672 C   0  0  0  0  0  0  0  0  0  0  0  0
   16.4760   54.8392   10.3441 C   0  0  0  0  0  0  0  0  0  0  0  0
   16.9261   51.1692   14.7729 N   0  0  0  0  0  0  0  0  0  0  0  0
   16.1595   50.9348   15.8348 C   0  0  0  0  0  0  0  0  0  0  0  0
   16.4981   49.8091   16.7076 C   0  0  0  0  0  0  0  0  0  0  0  0
   15.5470   48.7685   16.9265 C   0  0  0  0  0  0  0  0  0  0  0  0
   15.8697   47.6683   17.7539 C   0  0  0  0  0  0  0  0  0  0  0  0
   17.1539   47.6181   18.3526 C   0  0  0  0  0  0  0  0  0  0  0  0
   18.0481   48.6287   18.1237 N   0  0  0  0  0  0  0  0  0  0  0  0
   17.7538   49.7041   17.3280 C   0  0  0  0  0  0  0  0  0  0  0  0
   15.1488   51.5708   16.1153 O   0  0  0  0  0  0  0  0  0  0  0  0
   11.3734   62.3267   13.1424 H   0  0  0  0  0  0  0  0  0  0  0  0
    9.6473   61.3737   11.7447 H   0  0  0  0  0  0  0  0  0  0  0  0
   11.7457   57.8859   11.3842 H   0  0  0  0  0  0  0  0  0  0  0  0
   13.3368   60.9997   13.6626 H   0  0  0  0  0  0  0  0  0  0  0  0
   17.0581   58.3725   13.7971 H   0  0  0  0  0  0  0  0  0  0  0  0
   15.2590   59.9467   13.4081 H   0  0  0  0  0  0  0  0  0  0  0  0
   13.6159   54.5796   12.6036 H   0  0  0  0  0  0  0  0  0  0  0  0
   15.0796   53.1249   14.5047 H   0  0  0  0  0  0  0  0  0  0  0  0
   18.3854   51.4104   12.6657 H   0  0  0  0  0  0  0  0  0  0  0  0
   18.1906   52.9465   10.8569 H   0  0  0  0  0  0  0  0  0  0  0  0
   17.2237   54.5810    9.7322 H   0  0  0  0  0  0  0  0  0  0  0  0
   15.6034   54.7332    9.8673 H   0  0  0  0  0  0  0  0  0  0  0  0
   16.5890   55.7924   10.6245 H   0  0  0  0  0  0  0  0  0  0  0  0
   17.7278   50.5771   14.6903 H   0  0  0  0  0  0  0  0  0  0  0  0
   14.6474   48.8175   16.4924 H   0  0  0  0  0  0  0  0  0  0  0  0
   15.2044   46.9390   17.9139 H   0  0  0  0  0  0  0  0  0  0  0  0
   17.4050   46.8481   18.9392 H   0  0  0  0  0  0  0  0  0  0  0  0
   18.4380   50.4198   17.1879 H   0  0  0  0  0  0  0  0  0  0  0  0
  2  1  2  0  0  0  0
  3  2  1  0  0  0  0
  4  3  2  0  0  0  0
  5  4  1  0  0  0  0
  6  5  2  0  0  0  0
  6  1  1  0  0  0  0
  7  5  1  0  0  0  0
  8  7  2  0  0  0  0
  9  8  1  0  0  0  0
 10  9  2  0  0  0  0
 11 10  1  0  0  0  0
 12 11  2  0  0  0  0
 12  7  1  0  0  0  0
 13  9  1  0  0  0  0
 14 13  1  0  0  0  0
 15 14  2  0  0  0  0
 16 15  1  0  0  0  0
 17 16  2  0  0  0  0
 18 17  1  0  0  0  0
 19 14  1  0  0  0  0
 19 18  2  0  0  0  0
 20 19  1  0  0  0  0
 21 16  1  0  0  0  0
 22 21  1  0  0  0  0
 23 22  1  0  0  0  0
 24 23  2  0  0  0  0
 25 24  1  0  0  0  0
 26 25  2  0  0  0  0
 27 26  1  0  0  0  0
 28 23  1  0  0  0  0
 28 27  2  0  0  0  0
 29 22  2  0  0  0  0
  1 30  1  0  0  0  0
  2 31  1  0  0  0  0
  4 32  1  0  0  0  0
  6 33  1  0  0  0  0
 11 34  1  0  0  0  0
 12 35  1  0  0  0  0
 13 36  1  0  0  0  0
 15 37  1  0  0  0  0
 17 38  1  0  0  0  0
 18 39  1  0  0  0  0
 20 40  1  0  0  0  0
 20 41  1  0  0  0  0
 20 42  1  0  0  0  0
 21 43  1  0  0  0  0
 24 44  1  0  0  0  0
 25 45  1  0  0  0  0
 26 46  1  0  0  0  0
 28 47  1  0  0  0  0
M  END
> <BIOSOLVEIT.HYDE_ESTIMATED_AFFINITY_LOWER_BOUNDARY [nM]>
1470.906794

> <BIOSOLVEIT.HYDE_ESTIMATED_AFFINITY_UPPER_BOUNDARY [nM]>
146143.286718

> <BIOSOLVEIT.HYDE_LIGAND_EFFICIENCY range: ++, +, 0, -, -->
-

> <BIOSOLVEIT.HYDE_LIGAND_LIPOPHILIC_EFFICIENCY range: ++, +, 0, -, -->
--

> <BIOSOLVEIT.INTER_CLASH range: red, yellow, green>
green

> <BIOSOLVEIT.INTRA_CLASH range: red, yellow, green>
green

> <BIOSOLVEIT.LOGP>
4.23792

> <BIOSOLVEIT.MOLECULAR WEIGHT>
382.425

> <BIOSOLVEIT.MOLECULE_CHECKSUM>
LTI3LjU5MTU7MC45NTE0Mw==

> <BIOSOLVEIT.TORSION_QUALITY range: red, yellow, green, not rotatable>
yellow

> <BIOSOLVEIT.TPSA>
92.69

$$$$
