2QOH_P3Y
foHydescor03072119503D 1   1.00000     0.00000     0
Hydescorer 1.1.0 fol007
 48 51  0  0  0  0            999 V2000
   -4.3659    9.1630   24.5962 N   0  0  0  0  0  0  0  0  0  0  0  0
   -3.6915    8.3132   25.4275 C   0  0  0  0  0  0  0  0  0  0  0  0
   -2.6925    7.4352   24.9336 C   0  0  0  0  0  0  0  0  0  0  0  0
   -2.4276    7.4898   23.5415 C   0  0  0  0  0  0  0  0  0  0  0  0
   -3.1543    8.3940   22.6845 C   0  0  0  0  0  0  0  0  0  0  0  0
   -4.1112    9.2062   23.2490 C   0  0  0  0  0  0  0  0  0  0  0  0
   -3.1195    8.6651   21.2707 C   0  0  0  0  0  0  0  0  0  0  0  0
   -4.1178    9.6655   21.1379 C   0  0  0  0  0  0  0  0  0  0  0  0
   -4.7285   10.0073   22.3211 N   0  0  0  0  0  0  0  0  0  0  0  0
   -2.2718    8.0848   20.1598 C   0  0  0  0  0  0  0  0  0  0  0  0
   -2.1439    6.6727   19.9052 C   0  0  0  0  0  0  0  0  0  0  0  0
   -1.3123    6.2326   18.8153 C   0  0  0  0  0  0  0  0  0  0  0  0
   -0.6380    7.1571   18.0023 C   0  0  0  0  0  0  0  0  0  0  0  0
   -0.7658    8.5325   18.2510 C   0  0  0  0  0  0  0  0  0  0  0  0
   -1.5756    8.9864   19.3181 C   0  0  0  0  0  0  0  0  0  0  0  0
   -2.8457    5.7899   20.7449 O   0  0  0  0  0  0  0  0  0  0  0  0
   -1.9513    6.4871   25.8366 C   0  0  0  0  0  0  0  0  0  0  0  0
   -1.7221    5.1218   25.4825 C   0  0  0  0  0  0  0  0  0  0  0  0
   -1.0407    4.2465   26.2978 N   0  0  0  0  0  0  0  0  0  0  0  0
   -0.5570    4.6888   27.5040 C   0  0  0  0  0  0  0  0  0  0  0  0
   -0.7522    6.0331   27.9206 C   0  0  0  0  0  0  0  0  0  0  0  0
   -1.4532    6.9125   27.0663 C   0  0  0  0  0  0  0  0  0  0  0  0
   -0.2237    6.5003   29.2072 C   0  0  0  0  0  0  0  0  0  0  0  0
    0.9489    6.8443   29.2964 O   0  0  0  0  0  0  0  0  0  0  0  0
   -1.0822    6.5806   30.2920 N   0  0  0  0  0  0  0  0  0  0  0  0
   -1.7337    5.4257   30.9514 C   0  0  0  0  0  0  0  0  0  0  0  0
   -1.2648    7.9260   30.8798 C   0  0  0  0  0  0  0  0  0  0  0  0
   -2.7451    4.3631   20.5674 C   0  0  0  0  0  0  0  0  0  0  0  0
   -3.9068    8.3103   26.4041 H   0  0  0  0  0  0  0  0  0  0  0  0
   -1.7276    6.8934   23.1488 H   0  0  0  0  0  0  0  0  0  0  0  0
   -4.3556   10.0844   20.2616 H   0  0  0  0  0  0  0  0  0  0  0  0
   -5.4522   10.6810   22.4706 H   0  0  0  0  0  0  0  0  0  0  0  0
   -1.2137    5.2540   18.6348 H   0  0  0  0  0  0  0  0  0  0  0  0
   -0.0671    6.8361   17.2466 H   0  0  0  0  0  0  0  0  0  0  0  0
   -0.2841    9.1918   17.6736 H   0  0  0  0  0  0  0  0  0  0  0  0
   -1.6587    9.9693   19.4825 H   0  0  0  0  0  0  0  0  0  0  0  0
   -2.0709    4.7886   24.6066 H   0  0  0  0  0  0  0  0  0  0  0  0
   -0.0602    4.0559   28.0978 H   0  0  0  0  0  0  0  0  0  0  0  0
   -1.5950    7.8609   27.3500 H   0  0  0  0  0  0  0  0  0  0  0  0
   -2.3026    5.7505   31.7069 H   0  0  0  0  0  0  0  0  0  0  0  0
   -2.3048    4.9418   30.2883 H   0  0  0  0  0  0  0  0  0  0  0  0
   -1.0338    4.8048   31.3042 H   0  0  0  0  0  0  0  0  0  0  0  0
   -1.8994    7.8697   31.6506 H   0  0  0  0  0  0  0  0  0  0  0  0
   -0.3828    8.2729   31.1987 H   0  0  0  0  0  0  0  0  0  0  0  0
   -1.6357    8.5448   30.1872 H   0  0  0  0  0  0  0  0  0  0  0  0
   -3.3095    3.9014   21.2518 H   0  0  0  0  0  0  0  0  0  0  0  0
   -3.0639    4.1177   19.6519 H   0  0  0  0  0  0  0  0  0  0  0  0
   -1.7921    4.0801   20.6754 H   0  0  0  0  0  0  0  0  0  0  0  0
  2  1  2  0  0  0  0
  3  2  1  0  0  0  0
  4  3  2  0  0  0  0
  5  4  1  0  0  0  0
  6  5  2  0  0  0  0
  6  1  1  0  0  0  0
  7  5  1  0  0  0  0
  8  7  2  0  0  0  0
  9  8  1  0  0  0  0
  9  6  1  0  0  0  0
 10  7  1  0  0  0  0
 11 10  2  0  0  0  0
 12 11  1  0  0  0  0
 13 12  2  0  0  0  0
 14 13  1  0  0  0  0
 15 14  2  0  0  0  0
 15 10  1  0  0  0  0
 16 11  1  0  0  0  0
 17  3  1  0  0  0  0
 18 17  2  0  0  0  0
 19 18  1  0  0  0  0
 20 19  2  0  0  0  0
 21 20  1  0  0  0  0
 22 17  1  0  0  0  0
 22 21  2  0  0  0  0
 23 21  1  0  0  0  0
 24 23  2  0  0  0  0
 25 23  1  0  0  0  0
 26 25  1  0  0  0  0
 27 25  1  0  0  0  0
 28 16  1  0  0  0  0
  2 29  1  0  0  0  0
  4 30  1  0  0  0  0
  8 31  1  0  0  0  0
  9 32  1  0  0  0  0
 12 33  1  0  0  0  0
 13 34  1  0  0  0  0
 14 35  1  0  0  0  0
 15 36  1  0  0  0  0
 18 37  1  0  0  0  0
 20 38  1  0  0  0  0
 22 39  1  0  0  0  0
 26 40  1  0  0  0  0
 26 41  1  0  0  0  0
 26 42  1  0  0  0  0
 27 43  1  0  0  0  0
 27 44  1  0  0  0  0
 27 45  1  0  0  0  0
 28 46  1  0  0  0  0
 28 47  1  0  0  0  0
 28 48  1  0  0  0  0
M  END
> <BIOSOLVEIT.HYDE_ESTIMATED_AFFINITY_LOWER_BOUNDARY [nM]>
0.043251

> <BIOSOLVEIT.HYDE_ESTIMATED_AFFINITY_UPPER_BOUNDARY [nM]>
4.297280

> <BIOSOLVEIT.HYDE_LIGAND_EFFICIENCY range: ++, +, 0, -, -->
+

> <BIOSOLVEIT.HYDE_LIGAND_LIPOPHILIC_EFFICIENCY range: ++, +, 0, -, -->
+

> <BIOSOLVEIT.INTER_CLASH range: red, yellow, green>
green

> <BIOSOLVEIT.INTRA_CLASH range: red, yellow, green>
green

> <BIOSOLVEIT.LOGP>
4.0023

> <BIOSOLVEIT.MOLECULAR WEIGHT>
372.426

> <BIOSOLVEIT.MOLECULE_CHECKSUM>
LTUzLjQ1Nzg7MS45MDkyMQ==

> <BIOSOLVEIT.TORSION_QUALITY range: red, yellow, green, not rotatable>
yellow

> <BIOSOLVEIT.TPSA>
71.11

$$$$
