3K5V_STI
foHydescor03072119513D 1   1.00000     0.00000     0
Hydescorer 1.1.0 fol007
 70 74  0  0  0  0            999 V2000
   26.2532   19.8206   58.9603 C   0  0  0  0  0  0  0  0  0  0  0  0
   25.1253   18.9978   59.1072 C   0  0  0  0  0  0  0  0  0  0  0  0
   24.7392   18.1668   58.0383 C   0  0  0  0  0  0  0  0  0  0  0  0
   25.4735   18.1923   56.8361 C   0  0  0  0  0  0  0  0  0  0  0  0
   26.5518   19.0074   56.7154 N   0  0  0  0  0  0  0  0  0  0  0  0
   26.9477   19.7938   57.7466 C   0  0  0  0  0  0  0  0  0  0  0  0
   23.5521   17.2988   58.1927 C   0  0  0  0  0  0  0  0  0  0  0  0
   22.8442   17.1879   59.3877 C   0  0  0  0  0  0  0  0  0  0  0  0
   21.7232   16.3431   59.4287 C   0  0  0  0  0  0  0  0  0  0  0  0
   21.3947   15.6396   58.3320 N   0  0  0  0  0  0  0  0  0  0  0  0
   22.0971   15.7443   57.1824 C   0  0  0  0  0  0  0  0  0  0  0  0
   23.1801   16.5514   57.1291 N   0  0  0  0  0  0  0  0  0  0  0  0
   21.7522   15.0261   56.0854 N   0  0  0  0  0  0  0  0  0  0  0  0
   20.7086   14.1420   56.0301 C   0  0  0  0  0  0  0  0  0  0  0  0
   20.8415   12.8087   56.4562 C   0  0  0  0  0  0  0  0  0  0  0  0
   19.7445   11.9312   56.3675 C   0  0  0  0  0  0  0  0  0  0  0  0
   18.5163   12.3687   55.8340 C   0  0  0  0  0  0  0  0  0  0  0  0
   18.3670   13.7127   55.4419 C   0  0  0  0  0  0  0  0  0  0  0  0
   19.4696   14.5678   55.5089 C   0  0  0  0  0  0  0  0  0  0  0  0
   17.1305   14.1170   54.8350 N   0  0  0  0  0  0  0  0  0  0  0  0
   16.7205   15.3665   54.5331 C   0  0  0  0  0  0  0  0  0  0  0  0
   15.4256   15.5213   53.7581 C   0  0  0  0  0  0  0  0  0  0  0  0
   15.4237   16.3606   52.6466 C   0  0  0  0  0  0  0  0  0  0  0  0
   14.2627   16.5199   51.8769 C   0  0  0  0  0  0  0  0  0  0  0  0
   13.1191   15.7965   52.2216 C   0  0  0  0  0  0  0  0  0  0  0  0
   13.1233   14.9347   53.3199 C   0  0  0  0  0  0  0  0  0  0  0  0
   14.2850   14.7795   54.0862 C   0  0  0  0  0  0  0  0  0  0  0  0
   11.8423   15.9737   51.3752 C   0  0  0  0  0  0  0  0  0  0  0  0
   10.6244   15.8874   52.2080 N   0  3  0  0  0  0  0  0  0  0  0  0
   10.4900   16.9397   53.2461 C   0  0  0  0  0  0  0  0  0  0  0  0
    9.2600   16.6398   54.1218 C   0  0  0  0  0  0  0  0  0  0  0  0
    8.0538   16.5624   53.2495 N   0  3  0  0  0  0  0  0  0  0  0  0
    6.8313   16.3339   54.0680 C   0  0  0  0  0  0  0  0  0  0  0  0
    8.1723   15.5243   52.1920 C   0  0  0  0  0  0  0  0  0  0  0  0
    9.4243   15.7860   51.3207 C   0  0  0  0  0  0  0  0  0  0  0  0
   17.2903   16.3779   54.8905 O   0  0  0  0  0  0  0  0  0  0  0  0
   22.1850   12.3223   57.0229 C   0  0  0  0  0  0  0  0  0  0  0  0
   26.5537   20.4133   59.7075 H   0  0  0  0  0  0  0  0  0  0  0  0
   24.6030   19.0018   59.9599 H   0  0  0  0  0  0  0  0  0  0  0  0
   25.1998   17.6094   56.0710 H   0  0  0  0  0  0  0  0  0  0  0  0
   27.7576   20.3699   57.6363 H   0  0  0  0  0  0  0  0  0  0  0  0
   23.1283   17.6991   60.1988 H   0  0  0  0  0  0  0  0  0  0  0  0
   21.1769   16.2661   60.2627 H   0  0  0  0  0  0  0  0  0  0  0  0
   22.2991   15.1513   55.2576 H   0  0  0  0  0  0  0  0  0  0  0  0
   19.8378   10.9880   56.6864 H   0  0  0  0  0  0  0  0  0  0  0  0
   17.7547   11.7283   55.7342 H   0  0  0  0  0  0  0  0  0  0  0  0
   19.3776   15.5071   55.1784 H   0  0  0  0  0  0  0  0  0  0  0  0
   16.4934   13.3805   54.6076 H   0  0  0  0  0  0  0  0  0  0  0  0
   16.2567   16.8535   52.3956 H   0  0  0  0  0  0  0  0  0  0  0  0
   14.2537   17.1415   51.0936 H   0  0  0  0  0  0  0  0  0  0  0  0
   12.2955   14.4275   53.5597 H   0  0  0  0  0  0  0  0  0  0  0  0
   14.2996   14.1456   54.8596 H   0  0  0  0  0  0  0  0  0  0  0  0
   11.8116   15.2564   50.6793 H   0  0  0  0  0  0  0  0  0  0  0  0
   11.8690   16.8689   50.9303 H   0  0  0  0  0  0  0  0  0  0  0  0
   10.3768   17.8304   52.8056 H   0  0  0  0  0  0  0  0  0  0  0  0
   11.3109   16.9521   53.8169 H   0  0  0  0  0  0  0  0  0  0  0  0
    9.1411   17.3696   54.7950 H   0  0  0  0  0  0  0  0  0  0  0  0
    9.3890   15.7681   54.5946 H   0  0  0  0  0  0  0  0  0  0  0  0
    6.0328   16.2846   53.4679 H   0  0  0  0  0  0  0  0  0  0  0  0
    6.9231   15.4751   54.5718 H   0  0  0  0  0  0  0  0  0  0  0  0
    6.7168   17.0886   54.7139 H   0  0  0  0  0  0  0  0  0  0  0  0
    7.3569   15.5481   51.6136 H   0  0  0  0  0  0  0  0  0  0  0  0
    8.2509   14.6242   52.6206 H   0  0  0  0  0  0  0  0  0  0  0  0
    9.3080   16.6411   50.8154 H   0  0  0  0  0  0  0  0  0  0  0  0
    9.5472   15.0318   50.6758 H   0  0  0  0  0  0  0  0  0  0  0  0
   22.1101   11.3579   57.2768 H   0  0  0  0  0  0  0  0  0  0  0  0
   22.8977   12.4301   56.3299 H   0  0  0  0  0  0  0  0  0  0  0  0
   22.4211   12.8623   57.8307 H   0  0  0  0  0  0  0  0  0  0  0  0
   10.6829   15.0178   52.6983 H   0  0  0  0  0  0  0  0  0  0  0  0
    7.9523   17.4471   52.7947 H   0  0  0  0  0  0  0  0  0  0  0  0
  2  1  2  0  0  0  0
  3  2  1  0  0  0  0
  4  3  2  0  0  0  0
  5  4  1  0  0  0  0
  6  5  2  0  0  0  0
  6  1  1  0  0  0  0
  7  3  1  0  0  0  0
  8  7  2  0  0  0  0
  9  8  1  0  0  0  0
 10  9  2  0  0  0  0
 11 10  1  0  0  0  0
 12 11  2  0  0  0  0
 12  7  1  0  0  0  0
 13 11  1  0  0  0  0
 14 13  1  0  0  0  0
 15 14  2  0  0  0  0
 16 15  1  0  0  0  0
 17 16  2  0  0  0  0
 18 17  1  0  0  0  0
 19 18  2  0  0  0  0
 19 14  1  0  0  0  0
 20 18  1  0  0  0  0
 21 20  1  0  0  0  0
 22 21  1  0  0  0  0
 23 22  2  0  0  0  0
 24 23  1  0  0  0  0
 25 24  2  0  0  0  0
 26 25  1  0  0  0  0
 27 26  2  0  0  0  0
 27 22  1  0  0  0  0
 28 25  1  0  0  0  0
 29 28  1  0  0  0  0
 30 29  1  0  0  0  0
 31 30  1  0  0  0  0
 32 31  1  0  0  0  0
 33 32  1  0  0  0  0
 34 32  1  0  0  0  0
 35 34  1  0  0  0  0
 35 29  1  0  0  0  0
 36 21  2  0  0  0  0
 37 15  1  0  0  0  0
  1 38  1  0  0  0  0
  2 39  1  0  0  0  0
  4 40  1  0  0  0  0
  6 41  1  0  0  0  0
  8 42  1  0  0  0  0
  9 43  1  0  0  0  0
 13 44  1  0  0  0  0
 16 45  1  0  0  0  0
 17 46  1  0  0  0  0
 19 47  1  0  0  0  0
 20 48  1  0  0  0  0
 23 49  1  0  0  0  0
 24 50  1  0  0  0  0
 26 51  1  0  0  0  0
 27 52  1  0  0  0  0
 28 53  1  0  0  0  0
 28 54  1  0  0  0  0
 30 55  1  0  0  0  0
 30 56  1  0  0  0  0
 31 57  1  0  0  0  0
 31 58  1  0  0  0  0
 33 59  1  0  0  0  0
 33 60  1  0  0  0  0
 33 61  1  0  0  0  0
 34 62  1  0  0  0  0
 34 63  1  0  0  0  0
 35 64  1  0  0  0  0
 35 65  1  0  0  0  0
 37 66  1  0  0  0  0
 37 67  1  0  0  0  0
 37 68  1  0  0  0  0
 29 69  1  0  0  0  0
 32 70  1  0  0  0  0
M  CHG  2  29   1  32   1
M  END
> <BIOSOLVEIT.HYDE_ESTIMATED_AFFINITY_LOWER_BOUNDARY [nM]>
0.000697

> <BIOSOLVEIT.HYDE_ESTIMATED_AFFINITY_UPPER_BOUNDARY [nM]>
0.069238

> <BIOSOLVEIT.HYDE_LIGAND_EFFICIENCY range: ++, +, 0, -, -->
+

> <BIOSOLVEIT.HYDE_LIGAND_LIPOPHILIC_EFFICIENCY range: ++, +, 0, -, -->
++

> <BIOSOLVEIT.INTER_CLASH range: red, yellow, green>
green

> <BIOSOLVEIT.INTRA_CLASH range: red, yellow, green>
green

> <BIOSOLVEIT.LOGP>
1.75612

> <BIOSOLVEIT.MOLECULAR WEIGHT>
495.628

> <BIOSOLVEIT.MOLECULE_CHECKSUM>
LTYzLjY5MTQ7MS43MjEzOQ==

> <BIOSOLVEIT.TORSION_QUALITY range: red, yellow, green, not rotatable>
yellow

> <BIOSOLVEIT.TPSA>
88.68

$$$$
