3K5V_STJ
foHydescor03072119503D 1   1.00000     0.00000     0
Hydescorer 1.1.0 fol007
 40 42  0  0  0  0            999 V2000
   16.6574   38.4080   48.8868 F   0  0  0  0  0  0  0  0  0  0  0  0
   17.1901   38.9340   50.0168 C   0  0  0  0  0  0  0  0  0  0  0  0
   16.3232   38.8458   51.0642 F   0  0  0  0  0  0  0  0  0  0  0  0
   18.3557   38.3067   50.3256 F   0  0  0  0  0  0  0  0  0  0  0  0
   17.4520   40.2957   49.7354 O   0  0  0  0  0  0  0  0  0  0  0  0
   18.0202   41.1099   50.7193 C   0  0  0  0  0  0  0  0  0  0  0  0
   19.4163   41.3161   50.7818 C   0  0  0  0  0  0  0  0  0  0  0  0
   19.9554   42.1508   51.7649 C   0  0  0  0  0  0  0  0  0  0  0  0
   19.1277   42.7770   52.7011 C   0  0  0  0  0  0  0  0  0  0  0  0
   17.7348   42.5784   52.6216 C   0  0  0  0  0  0  0  0  0  0  0  0
   17.1889   41.7470   51.6361 C   0  0  0  0  0  0  0  0  0  0  0  0
   19.5598   43.6082   53.6760 N   0  0  0  0  0  0  0  0  0  0  0  0
   20.8281   43.9737   53.9990 C   0  0  0  0  0  0  0  0  0  0  0  0
   21.9229   43.5556   53.3048 N   0  0  0  0  0  0  0  0  0  0  0  0
   23.1732   43.9406   53.6612 C   0  0  0  0  0  0  0  0  0  0  0  0
   23.3515   44.7623   54.7235 N   0  0  0  0  0  0  0  0  0  0  0  0
   22.2975   45.2134   55.4511 C   0  0  0  0  0  0  0  0  0  0  0  0
   20.9952   44.8230   55.0917 C   0  0  0  0  0  0  0  0  0  0  0  0
   22.5470   46.1178   56.5964 C   0  0  0  0  0  0  0  0  0  0  0  0
   23.8266   46.6711   56.7114 C   0  0  0  0  0  0  0  0  0  0  0  0
   24.1542   47.5420   57.7505 C   0  0  0  0  0  0  0  0  0  0  0  0
   23.1789   47.8652   58.7133 C   0  0  0  0  0  0  0  0  0  0  0  0
   21.8883   47.3135   58.6093 C   0  0  0  0  0  0  0  0  0  0  0  0
   21.5682   46.4393   57.5510 C   0  0  0  0  0  0  0  0  0  0  0  0
   25.5794   48.0585   57.7373 C   0  0  0  0  0  0  0  0  0  0  0  0
   26.1654   48.0384   56.6671 O   0  0  0  0  0  0  0  0  0  0  0  0
   26.2028   48.4814   58.8609 N   0  0  0  0  0  0  0  0  0  0  0  0
   20.0186   40.8652   50.1230 H   0  0  0  0  0  0  0  0  0  0  0  0
   20.9435   42.3015   51.7989 H   0  0  0  0  0  0  0  0  0  0  0  0
   17.1310   43.0352   53.2748 H   0  0  0  0  0  0  0  0  0  0  0  0
   16.1993   41.6106   51.5908 H   0  0  0  0  0  0  0  0  0  0  0  0
   18.8414   44.0128   54.2417 H   0  0  0  0  0  0  0  0  0  0  0  0
   23.9635   43.6181   53.1401 H   0  0  0  0  0  0  0  0  0  0  0  0
   20.2042   45.1484   55.6099 H   0  0  0  0  0  0  0  0  0  0  0  0
   24.5228   46.4368   56.0329 H   0  0  0  0  0  0  0  0  0  0  0  0
   23.4021   48.4834   59.4670 H   0  0  0  0  0  0  0  0  0  0  0  0
   21.1937   47.5433   59.2910 H   0  0  0  0  0  0  0  0  0  0  0  0
   20.6497   46.0502   57.4804 H   0  0  0  0  0  0  0  0  0  0  0  0
   27.1020   48.9147   58.8008 H   0  0  0  0  0  0  0  0  0  0  0  0
   25.7644   48.3606   59.7516 H   0  0  0  0  0  0  0  0  0  0  0  0
  2  1  1  0  0  0  0
  3  2  1  0  0  0  0
  4  2  1  0  0  0  0
  5  2  1  0  0  0  0
  6  5  1  0  0  0  0
  7  6  2  0  0  0  0
  8  7  1  0  0  0  0
  9  8  2  0  0  0  0
 10  9  1  0  0  0  0
 11 10  2  0  0  0  0
 11  6  1  0  0  0  0
 12  9  1  0  0  0  0
 13 12  1  0  0  0  0
 14 13  2  0  0  0  0
 15 14  1  0  0  0  0
 16 15  2  0  0  0  0
 17 16  1  0  0  0  0
 18 13  1  0  0  0  0
 18 17  2  0  0  0  0
 19 17  1  0  0  0  0
 20 19  2  0  0  0  0
 21 20  1  0  0  0  0
 22 21  2  0  0  0  0
 23 22  1  0  0  0  0
 24 23  2  0  0  0  0
 24 19  1  0  0  0  0
 25 21  1  0  0  0  0
 26 25  2  0  0  0  0
 27 25  1  0  0  0  0
  7 28  1  0  0  0  0
  8 29  1  0  0  0  0
 10 30  1  0  0  0  0
 11 31  1  0  0  0  0
 12 32  1  0  0  0  0
 15 33  1  0  0  0  0
 18 34  1  0  0  0  0
 20 35  1  0  0  0  0
 22 36  1  0  0  0  0
 23 37  1  0  0  0  0
 24 38  1  0  0  0  0
 27 39  1  0  0  0  0
 27 40  1  0  0  0  0
M  END
> <BIOSOLVEIT.HYDE_ESTIMATED_AFFINITY_LOWER_BOUNDARY [nM]>
0.450332

> <BIOSOLVEIT.HYDE_ESTIMATED_AFFINITY_UPPER_BOUNDARY [nM]>
44.743115

> <BIOSOLVEIT.HYDE_LIGAND_EFFICIENCY range: ++, +, 0, -, -->
+

> <BIOSOLVEIT.HYDE_LIGAND_LIPOPHILIC_EFFICIENCY range: ++, +, 0, -, -->
0

> <BIOSOLVEIT.INTER_CLASH range: red, yellow, green>
green

> <BIOSOLVEIT.INTRA_CLASH range: red, yellow, green>
yellow

> <BIOSOLVEIT.LOGP>
3.8847

> <BIOSOLVEIT.MOLECULAR WEIGHT>
374.321

> <BIOSOLVEIT.MOLECULE_CHECKSUM>
LTQ3LjY0OTc7MS43NjQ4

> <BIOSOLVEIT.TORSION_QUALITY range: red, yellow, green, not rotatable>
green

> <BIOSOLVEIT.TPSA>
90.13

$$$$
