3KFA_B91
foHydescor03072119513D 1   1.00000     0.00000     0
Hydescorer 1.1.0 fol007
 66 71  0  0  0  0            999 V2000
   18.3345   -9.2137    9.5787 C   0  0  0  0  0  0  0  0  0  0  0  0
   12.7329   -4.7013   18.4421 F   0  0  0  0  0  0  0  0  0  0  0  0
   17.3163   -9.7696   10.3108 N   0  0  0  0  0  0  0  0  0  0  0  0
   16.0664   -7.5404   16.2513 O   0  0  0  0  0  0  0  0  0  0  0  0
   18.9596   -8.6734    3.5904 C   0  0  0  0  0  0  0  0  0  0  0  0
   11.6920   -6.5308   18.3076 F   0  0  0  0  0  0  0  0  0  0  0  0
   16.3295   -8.6885   18.2015 N   0  0  0  0  0  0  0  0  0  0  0  0
   17.2055  -10.0160   11.7413 C   0  0  0  0  0  0  0  0  0  0  0  0
   11.6454   -5.4069   20.1455 F   0  0  0  0  0  0  0  0  0  0  0  0
   15.7483   -7.1241   22.6610 N   0  0  0  0  0  0  0  0  0  0  0  0
   18.2144  -10.2352   12.5378 C   0  0  0  0  0  0  0  0  0  0  0  0
   15.7697   -7.3632   24.8536 N   0  0  0  0  0  0  0  0  0  0  0  0
   18.0368  -10.4185   13.9776 C   0  0  0  0  0  0  0  0  0  0  0  0
   16.6059   -9.7800    8.2244 N   0  0  0  0  0  0  0  0  0  0  0  0
   18.5065  -11.5888   14.6183 C   0  0  0  0  0  0  0  0  0  0  0  0
   19.5326   -8.7494    9.9741 N   0  0  0  0  0  0  0  0  0  0  0  0
   18.3484  -11.7569   16.0200 C   0  0  0  0  0  0  0  0  0  0  0  0
   19.9208   -8.2056    7.6862 N   0  0  0  0  0  0  0  0  0  0  0  0
   17.7005  -10.7496   16.7758 C   0  0  0  0  0  0  0  0  0  0  0  0
   18.3112   -8.6332    6.0019 N   0  0  0  0  0  0  0  0  0  0  0  0
   17.2139   -9.5791   16.1378 C   0  0  0  0  0  0  0  0  0  0  0  0
   17.3881   -9.4111   14.7394 C   0  0  0  0  0  0  0  0  0  0  0  0
   19.1696  -12.6836   13.8432 C   0  0  0  0  0  0  0  0  0  0  0  0
   16.5102   -8.5216   16.8641 C   0  0  0  0  0  0  0  0  0  0  0  0
   15.5626   -7.9209   19.0493 C   0  0  0  0  0  0  0  0  0  0  0  0
   15.9796   -7.8444   20.3588 C   0  0  0  0  0  0  0  0  0  0  0  0
   15.2715   -7.1005   21.3392 C   0  0  0  0  0  0  0  0  0  0  0  0
   14.0998   -6.4209   20.9348 C   0  0  0  0  0  0  0  0  0  0  0  0
   13.6382   -6.4794   19.5870 C   0  0  0  0  0  0  0  0  0  0  0  0
   14.3816   -7.2392   18.6576 C   0  0  0  0  0  0  0  0  0  0  0  0
   12.3919   -5.7702   19.1156 C   0  0  0  0  0  0  0  0  0  0  0  0
   17.0558   -7.0004   23.0633 C   0  0  0  0  0  0  0  0  0  0  0  0
   14.9625   -7.3483   23.7724 C   0  0  0  0  0  0  0  0  0  0  0  0
   19.2280   -8.0551    4.9580 C   0  0  0  0  0  0  0  0  0  0  0  0
   17.0336   -7.1563   24.4437 C   0  0  0  0  0  0  0  0  0  0  0  0
   16.2708  -10.1175    9.5053 C   0  0  0  0  0  0  0  0  0  0  0  0
   18.1593   -7.1282   25.3801 C   0  0  0  0  0  0  0  0  0  0  0  0
   20.2024   -9.1020    4.3855 C   0  0  0  0  0  0  0  0  0  0  0  0
   17.8582   -9.2214    8.2503 C   0  0  0  0  0  0  0  0  0  0  0  0
   18.7078   -8.6834    7.3014 C   0  0  0  0  0  0  0  0  0  0  0  0
   20.3154   -8.2437    8.9776 C   0  0  0  0  0  0  0  0  0  0  0  0
   19.0625   -8.1201    2.7638 H   0  0  0  0  0  0  0  0  0  0  0  0
   18.1986   -9.3114    3.4719 H   0  0  0  0  0  0  0  0  0  0  0  0
   16.8103   -9.4597   18.6185 H   0  0  0  0  0  0  0  0  0  0  0  0
   16.2893  -10.0172   12.1422 H   0  0  0  0  0  0  0  0  0  0  0  0
   19.1362  -10.2792   12.1529 H   0  0  0  0  0  0  0  0  0  0  0  0
   18.6924  -12.5810   16.4700 H   0  0  0  0  0  0  0  0  0  0  0  0
   17.5855  -10.8636   17.7626 H   0  0  0  0  0  0  0  0  0  0  0  0
   17.4107   -8.9804    5.7400 H   0  0  0  0  0  0  0  0  0  0  0  0
   17.0538   -8.5825   14.2902 H   0  0  0  0  0  0  0  0  0  0  0  0
   19.4304  -13.4218   14.4654 H   0  0  0  0  0  0  0  0  0  0  0  0
   18.5355  -13.0361   13.1551 H   0  0  0  0  0  0  0  0  0  0  0  0
   19.9862  -12.3246   13.3912 H   0  0  0  0  0  0  0  0  0  0  0  0
   16.8108   -8.3300   20.6293 H   0  0  0  0  0  0  0  0  0  0  0  0
   13.5848   -5.8889   21.6068 H   0  0  0  0  0  0  0  0  0  0  0  0
   14.0709   -7.2977   17.7088 H   0  0  0  0  0  0  0  0  0  0  0  0
   17.8545   -6.8335   22.4851 H   0  0  0  0  0  0  0  0  0  0  0  0
   13.9708   -7.4769   23.7761 H   0  0  0  0  0  0  0  0  0  0  0  0
   19.5106   -7.0981    5.0222 H   0  0  0  0  0  0  0  0  0  0  0  0
   15.4147  -10.5425    9.7993 H   0  0  0  0  0  0  0  0  0  0  0  0
   19.0074   -6.9620   24.8769 H   0  0  0  0  0  0  0  0  0  0  0  0
   18.0193   -6.3972   26.0479 H   0  0  0  0  0  0  0  0  0  0  0  0
   18.2200   -8.0063   25.8548 H   0  0  0  0  0  0  0  0  0  0  0  0
   20.2495  -10.0162    4.7880 H   0  0  0  0  0  0  0  0  0  0  0  0
   21.1133   -8.8249    4.0799 H   0  0  0  0  0  0  0  0  0  0  0  0
   21.2191   -7.8862    9.2132 H   0  0  0  0  0  0  0  0  0  0  0  0
  3  1  1  0  0  0  0
  8  3  1  0  0  0  0
 11  8  2  0  0  0  0
 13 11  1  0  0  0  0
 15 13  2  0  0  0  0
 16  1  1  0  0  0  0
 17 15  1  0  0  0  0
 19 17  2  0  0  0  0
 21 19  1  0  0  0  0
 22 21  2  0  0  0  0
 22 13  1  0  0  0  0
 23 15  1  0  0  0  0
 24  4  2  0  0  0  0
 24  7  1  0  0  0  0
 24 21  1  0  0  0  0
 25  7  1  0  0  0  0
 26 25  2  0  0  0  0
 27 26  1  0  0  0  0
 27 10  1  0  0  0  0
 28 27  2  0  0  0  0
 29 28  1  0  0  0  0
 30 29  2  0  0  0  0
 30 25  1  0  0  0  0
 31 29  1  0  0  0  0
 31  6  1  0  0  0  0
 31  9  1  0  0  0  0
 31  2  1  0  0  0  0
 32 10  1  0  0  0  0
 33 12  2  0  0  0  0
 33 10  1  0  0  0  0
 34  5  1  0  0  0  0
 34 20  1  0  0  0  0
 35 12  1  0  0  0  0
 35 32  2  0  0  0  0
 36 14  2  0  0  0  0
 36  3  1  0  0  0  0
 37 35  1  0  0  0  0
 38 34  1  0  0  0  0
 38  5  1  0  0  0  0
 39 14  1  0  0  0  0
 39  1  2  0  0  0  0
 40 39  1  0  0  0  0
 40 20  1  0  0  0  0
 40 18  2  0  0  0  0
 41 18  1  0  0  0  0
 41 16  2  0  0  0  0
  5 42  1  0  0  0  0
  5 43  1  0  0  0  0
  7 44  1  0  0  0  0
  8 45  1  0  0  0  0
 11 46  1  0  0  0  0
 17 47  1  0  0  0  0
 19 48  1  0  0  0  0
 20 49  1  0  0  0  0
 22 50  1  0  0  0  0
 23 51  1  0  0  0  0
 23 52  1  0  0  0  0
 23 53  1  0  0  0  0
 26 54  1  0  0  0  0
 28 55  1  0  0  0  0
 30 56  1  0  0  0  0
 32 57  1  0  0  0  0
 33 58  1  0  0  0  0
 34 59  1  0  0  0  0
 36 60  1  0  0  0  0
 37 61  1  0  0  0  0
 37 62  1  0  0  0  0
 37 63  1  0  0  0  0
 38 64  1  0  0  0  0
 38 65  1  0  0  0  0
 41 66  1  0  0  0  0
M  END
> <BIOSOLVEIT.HYDE_ESTIMATED_AFFINITY_LOWER_BOUNDARY [nM]>
0.000007

> <BIOSOLVEIT.HYDE_ESTIMATED_AFFINITY_UPPER_BOUNDARY [nM]>
0.001000

> <BIOSOLVEIT.HYDE_LIGAND_EFFICIENCY range: ++, +, 0, -, -->
+

> <BIOSOLVEIT.HYDE_LIGAND_LIPOPHILIC_EFFICIENCY range: ++, +, 0, -, -->
++

> <BIOSOLVEIT.INTER_CLASH range: red, yellow, green>
green

> <BIOSOLVEIT.INTRA_CLASH range: red, yellow, green>
green

> <BIOSOLVEIT.LOGP>
6.10214

> <BIOSOLVEIT.MOLECULAR WEIGHT>
558.565

> <BIOSOLVEIT.MOLECULE_CHECKSUM>
LTc1LjAwMzU7MS44MjkzNQ==

> <BIOSOLVEIT.TORSION_QUALITY range: red, yellow, green, not rotatable>
yellow

> <BIOSOLVEIT.TPSA>
102.55

$$$$
