6HD4_FYW
foHydescor03072119513D 1   1.00000     0.00000     0
Hydescorer 1.1.0 fol007
 50 53  0  0  0  0            999 V2000
   16.7887   38.8509   49.8495 C   0  0  0  0  0  0  0  0  0  0  0  0
   23.1253   47.5013   60.1894 C   0  0  2  0  0  0  0  0  0  0  0  0
   21.8109   48.2012   59.7776 C   0  0  0  0  0  0  0  0  0  0  0  0
   20.9609   46.9703   59.3671 C   0  0  0  0  0  0  0  0  0  0  0  0
   18.7648   42.4717   52.6569 C   0  0  0  0  0  0  0  0  0  0  0  0
   17.3841   42.1934   52.7336 C   0  0  0  0  0  0  0  0  0  0  0  0
   16.7657   41.4938   51.6862 C   0  0  0  0  0  0  0  0  0  0  0  0
   20.6504   43.1095   54.1191 C   0  0  0  0  0  0  0  0  0  0  0  0
   21.0098   43.8453   55.3763 C   0  0  0  0  0  0  0  0  0  0  0  0
   21.8599   44.9526   55.3425 C   0  0  0  0  0  0  0  0  0  0  0  0
   21.6523   45.2446   57.7069 C   0  0  0  0  0  0  0  0  0  0  0  0
   20.7087   44.1768   57.7908 C   0  0  0  0  0  0  0  0  0  0  0  0
   20.4363   43.4594   56.6138 C   0  0  0  0  0  0  0  0  0  0  0  0
   20.1646   43.6166   59.0676 C   0  0  0  0  0  0  0  0  0  0  0  0
   21.0432   42.9902   59.9760 C   0  0  0  0  0  0  0  0  0  0  0  0
   16.1453   38.5726   51.0060 F   0  0  0  0  0  0  0  0  0  0  0  0
   18.0368   38.3007   49.9432 F   0  0  0  0  0  0  0  0  0  0  0  0
   16.0743   38.3546   48.8049 F   0  0  0  0  0  0  0  0  0  0  0  0
   16.8545   40.2643   49.6311 O   0  0  0  0  0  0  0  0  0  0  0  0
   17.5126   41.0349   50.6008 C   0  0  0  0  0  0  0  0  0  0  0  0
   18.9040   41.2323   50.5755 C   0  0  0  0  0  0  0  0  0  0  0  0
   19.5278   41.9503   51.5931 C   0  0  0  0  0  0  0  0  0  0  0  0
   19.3479   43.1409   53.7436 N   0  0  0  0  0  0  0  0  0  0  0  0
   21.5523   42.6249   53.4579 O   0  0  0  0  0  0  0  0  0  0  0  0
   22.1934   45.5332   56.5018 N   0  0  0  0  0  0  0  0  0  0  0  0
   20.5694   42.4653   61.1324 N   0  0  0  0  0  0  0  0  0  0  0  0
   19.2479   42.4753   61.4182 C   0  0  0  0  0  0  0  0  0  0  0  0
   18.3839   43.0519   60.5619 N   0  0  0  0  0  0  0  0  0  0  0  0
   18.8018   43.6017   59.3904 C   0  0  0  0  0  0  0  0  0  0  0  0
   21.9621   46.1644   58.6754 N   0  0  0  0  0  0  0  0  0  0  0  0
   23.3449   46.5710   58.9782 C   0  0  0  0  0  0  0  0  0  0  0  0
   22.9106   46.7148   61.3778 O   0  0  0  0  0  0  0  0  0  0  0  0
   23.8763   48.1521   60.3021 H   0  0  0  0  0  0  0  0  0  0  0  0
   21.9495   48.8278   59.0107 H   0  0  0  0  0  0  0  0  0  0  0  0
   21.3997   48.6966   60.5427 H   0  0  0  0  0  0  0  0  0  0  0  0
   20.2107   47.2277   58.7580 H   0  0  0  0  0  0  0  0  0  0  0  0
   20.5932   46.4941   60.1660 H   0  0  0  0  0  0  0  0  0  0  0  0
   16.8517   42.4915   53.5258 H   0  0  0  0  0  0  0  0  0  0  0  0
   15.7809   41.3226   51.7180 H   0  0  0  0  0  0  0  0  0  0  0  0
   22.2109   45.3030   54.4741 H   0  0  0  0  0  0  0  0  0  0  0  0
   19.8294   42.6654   56.6497 H   0  0  0  0  0  0  0  0  0  0  0  0
   22.0192   42.9330   59.7660 H   0  0  0  0  0  0  0  0  0  0  0  0
   19.4475   40.8561   49.8250 H   0  0  0  0  0  0  0  0  0  0  0  0
   20.5168   42.0959   51.5687 H   0  0  0  0  0  0  0  0  0  0  0  0
   18.7365   43.7018   54.3018 H   0  0  0  0  0  0  0  0  0  0  0  0
   18.9137   42.0561   62.2623 H   0  0  0  0  0  0  0  0  0  0  0  0
   18.1348   43.9961   58.7583 H   0  0  0  0  0  0  0  0  0  0  0  0
   23.7594   47.0600   58.2108 H   0  0  0  0  0  0  0  0  0  0  0  0
   23.9137   45.7844   59.2187 H   0  0  0  0  0  0  0  0  0  0  0  0
   22.6427   47.3154   62.1311 H   0  0  0  0  0  0  0  0  0  0  0  0
  3  2  1  0  0  0  0
  4  3  1  0  0  0  0
  6  5  2  0  0  0  0
  7  6  1  0  0  0  0
  9  8  1  0  0  0  0
 10  9  2  0  0  0  0
 12 11  1  0  0  0  0
 13 12  2  0  0  0  0
 13  9  1  0  0  0  0
 14 12  1  0  0  0  0
 15 14  2  0  0  0  0
 16  1  1  0  0  0  0
 17  1  1  0  0  0  0
 18  1  1  0  0  0  0
 19  1  1  0  0  0  0
 20 19  1  0  0  0  0
 20  7  2  0  0  0  0
 21 20  1  0  0  0  0
 22 21  2  0  0  0  0
 22  5  1  0  0  0  0
 23  8  1  0  0  0  0
 23  5  1  0  0  0  0
 24  8  2  0  0  0  0
 25 11  2  0  0  0  0
 25 10  1  0  0  0  0
 26 15  1  0  0  0  0
 27 26  2  0  0  0  0
 28 27  1  0  0  0  0
 29 28  2  0  0  0  0
 29 14  1  0  0  0  0
 30  4  1  0  0  0  0
 30 11  1  0  0  0  0
 31 30  1  0  0  0  0
 31  2  1  0  0  0  0
  2 32  1  0  0  0  0
  2 33  1  0  0  0  0
  3 34  1  0  0  0  0
  3 35  1  0  0  0  0
  4 36  1  0  0  0  0
  4 37  1  0  0  0  0
  6 38  1  0  0  0  0
  7 39  1  0  0  0  0
 10 40  1  0  0  0  0
 13 41  1  0  0  0  0
 15 42  1  0  0  0  0
 21 43  1  0  0  0  0
 22 44  1  0  0  0  0
 23 45  1  0  0  0  0
 27 46  1  0  0  0  0
 29 47  1  0  0  0  0
 31 48  1  0  0  0  0
 31 49  1  0  0  0  0
 32 50  1  0  0  0  0
M  END
> <BIOSOLVEIT.HYDE_ESTIMATED_AFFINITY_LOWER_BOUNDARY [nM]>
0.132494

> <BIOSOLVEIT.HYDE_ESTIMATED_AFFINITY_UPPER_BOUNDARY [nM]>
13.164086

> <BIOSOLVEIT.HYDE_LIGAND_EFFICIENCY range: ++, +, 0, -, -->
0

> <BIOSOLVEIT.HYDE_LIGAND_LIPOPHILIC_EFFICIENCY range: ++, +, 0, -, -->
+

> <BIOSOLVEIT.INTER_CLASH range: red, yellow, green>
green

> <BIOSOLVEIT.INTRA_CLASH range: red, yellow, green>
yellow

> <BIOSOLVEIT.LOGP>
3.2605

> <BIOSOLVEIT.MOLECULAR WEIGHT>
445.399

> <BIOSOLVEIT.MOLECULE_CHECKSUM>
LTUwLjY4MjY7MS41ODM4Mw==

> <BIOSOLVEIT.TORSION_QUALITY range: red, yellow, green, not rotatable>
yellow

> <BIOSOLVEIT.TPSA>
100.47

$$$$
