6HD6_FYH
foHydescor03072119503D 1   1.00000     0.00000     0
Hydescorer 1.1.0 fol007
 47 49  0  0  0  0            999 V2000
   17.6874   38.2864   50.2016 C   0  0  0  0  0  0  0  0  0  0  0  0
   26.9445   47.2153   59.2466 C   0  0  0  0  0  0  0  0  0  0  0  0
   26.2440   46.4717   58.0701 C   0  0  0  0  0  0  0  0  0  0  0  0
   19.7641   42.2208   52.8573 C   0  0  0  0  0  0  0  0  0  0  0  0
   18.3652   42.1105   52.7329 C   0  0  0  0  0  0  0  0  0  0  0  0
   17.7706   41.2734   51.7650 C   0  0  0  0  0  0  0  0  0  0  0  0
   21.6671   43.3873   53.9821 C   0  0  0  0  0  0  0  0  0  0  0  0
   22.1808   44.2011   55.1577 C   0  0  0  0  0  0  0  0  0  0  0  0
   23.2657   45.0932   55.0223 C   0  0  0  0  0  0  0  0  0  0  0  0
   23.7479   45.8260   56.1311 C   0  0  0  0  0  0  0  0  0  0  0  0
   23.1262   45.6360   57.3764 C   0  0  0  0  0  0  0  0  0  0  0  0
   22.0580   44.7486   57.5291 C   0  0  0  0  0  0  0  0  0  0  0  0
   21.5952   44.0294   56.4225 C   0  0  0  0  0  0  0  0  0  0  0  0
   24.9324   46.8099   55.9528 C   0  0  0  0  0  0  0  0  0  0  0  0
   16.8232   38.2536   51.2426 F   0  0  0  0  0  0  0  0  0  0  0  0
   18.7224   37.4724   50.5022 F   0  0  0  0  0  0  0  0  0  0  0  0
   17.1100   37.7731   49.0893 F   0  0  0  0  0  0  0  0  0  0  0  0
   18.0842   39.6442   49.9220 O   0  0  0  0  0  0  0  0  0  0  0  0
   18.5873   40.5035   50.9125 C   0  0  0  0  0  0  0  0  0  0  0  0
   19.9771   40.5952   51.0553 C   0  0  0  0  0  0  0  0  0  0  0  0
   20.5518   41.4342   52.0199 C   0  0  0  0  0  0  0  0  0  0  0  0
   20.3496   43.0334   53.8700 N   0  0  0  0  0  0  0  0  0  0  0  0
   22.5261   43.0657   53.1694 O   0  0  0  0  0  0  0  0  0  0  0  0
   25.5285   47.4259   57.1770 N   0  3  0  0  0  0  0  0  0  0  0  0
   24.7162   48.4590   57.8910 C   0  0  0  0  0  0  0  0  0  0  0  0
   25.5123   49.1439   59.0309 C   0  0  0  0  0  0  0  0  0  0  0  0
   26.0357   48.1257   59.9117 O   0  0  0  0  0  0  0  0  0  0  0  0
   27.7202   47.7343   58.8876 H   0  0  0  0  0  0  0  0  0  0  0  0
   27.2721   46.5412   59.9085 H   0  0  0  0  0  0  0  0  0  0  0  0
   25.5854   45.8184   58.4434 H   0  0  0  0  0  0  0  0  0  0  0  0
   26.9341   45.9817   57.5374 H   0  0  0  0  0  0  0  0  0  0  0  0
   17.7784   42.6390   53.3464 H   0  0  0  0  0  0  0  0  0  0  0  0
   16.7750   41.2267   51.6843 H   0  0  0  0  0  0  0  0  0  0  0  0
   23.7000   45.2089   54.1289 H   0  0  0  0  0  0  0  0  0  0  0  0
   23.4553   46.1469   58.1705 H   0  0  0  0  0  0  0  0  0  0  0  0
   21.6272   44.6286   58.4235 H   0  0  0  0  0  0  0  0  0  0  0  0
   20.8383   43.3853   56.5332 H   0  0  0  0  0  0  0  0  0  0  0  0
   24.6120   47.5573   55.3707 H   0  0  0  0  0  0  0  0  0  0  0  0
   25.6631   46.3127   55.4851 H   0  0  0  0  0  0  0  0  0  0  0  0
   20.5695   40.0532   50.4593 H   0  0  0  0  0  0  0  0  0  0  0  0
   21.5472   41.4688   52.1088 H   0  0  0  0  0  0  0  0  0  0  0  0
   19.7320   43.3829   54.5746 H   0  0  0  0  0  0  0  0  0  0  0  0
   23.9076   48.0194   58.2819 H   0  0  0  0  0  0  0  0  0  0  0  0
   24.4313   49.1561   57.2332 H   0  0  0  0  0  0  0  0  0  0  0  0
   24.9076   49.7532   59.5438 H   0  0  0  0  0  0  0  0  0  0  0  0
   26.2671   49.6725   58.6427 H   0  0  0  0  0  0  0  0  0  0  0  0
   26.2789   47.9682   56.7992 H   0  0  0  0  0  0  0  0  0  0  0  0
  3  2  1  0  0  0  0
  5  4  2  0  0  0  0
  6  5  1  0  0  0  0
  8  7  1  0  0  0  0
  9  8  2  0  0  0  0
 10  9  1  0  0  0  0
 11 10  2  0  0  0  0
 12 11  1  0  0  0  0
 13 12  2  0  0  0  0
 13  8  1  0  0  0  0
 14 10  1  0  0  0  0
 15  1  1  0  0  0  0
 16  1  1  0  0  0  0
 17  1  1  0  0  0  0
 18  1  1  0  0  0  0
 19 18  1  0  0  0  0
 19  6  2  0  0  0  0
 20 19  1  0  0  0  0
 21 20  2  0  0  0  0
 21  4  1  0  0  0  0
 22  7  1  0  0  0  0
 22  4  1  0  0  0  0
 23  7  2  0  0  0  0
 24 14  1  0  0  0  0
 24  3  1  0  0  0  0
 25 24  1  0  0  0  0
 26 25  1  0  0  0  0
 27 26  1  0  0  0  0
 27  2  1  0  0  0  0
  2 28  1  0  0  0  0
  2 29  1  0  0  0  0
  3 30  1  0  0  0  0
  3 31  1  0  0  0  0
  5 32  1  0  0  0  0
  6 33  1  0  0  0  0
  9 34  1  0  0  0  0
 11 35  1  0  0  0  0
 12 36  1  0  0  0  0
 13 37  1  0  0  0  0
 14 38  1  0  0  0  0
 14 39  1  0  0  0  0
 20 40  1  0  0  0  0
 21 41  1  0  0  0  0
 22 42  1  0  0  0  0
 25 43  1  0  0  0  0
 25 44  1  0  0  0  0
 26 45  1  0  0  0  0
 26 46  1  0  0  0  0
 24 47  1  0  0  0  0
M  CHG  1  24   1
M  END
> <BIOSOLVEIT.HYDE_ESTIMATED_AFFINITY_LOWER_BOUNDARY [nM]>
3.390110

> <BIOSOLVEIT.HYDE_ESTIMATED_AFFINITY_UPPER_BOUNDARY [nM]>
336.827446

> <BIOSOLVEIT.HYDE_LIGAND_EFFICIENCY range: ++, +, 0, -, -->
0

> <BIOSOLVEIT.HYDE_LIGAND_LIPOPHILIC_EFFICIENCY range: ++, +, 0, -, -->
+

> <BIOSOLVEIT.INTER_CLASH range: red, yellow, green>
green

> <BIOSOLVEIT.INTRA_CLASH range: red, yellow, green>
yellow

> <BIOSOLVEIT.LOGP>
2.2526

> <BIOSOLVEIT.MOLECULAR WEIGHT>
381.372

> <BIOSOLVEIT.MOLECULE_CHECKSUM>
LTQyLjY0NTY7MS41Nzk0Nw==

> <BIOSOLVEIT.TORSION_QUALITY range: red, yellow, green, not rotatable>
green

> <BIOSOLVEIT.TPSA>
52

$$$$
