1FPU_PRC_2
     RDKit          3D

 29 32  0  0  0  0  0  0  0  0999 V2000
   17.5597   43.4466   56.2590 C   0  0  0  0  0  0  0  0  0  0  0  0
   18.3594   43.0073   55.0432 C   0  0  0  0  0  0  0  0  0  0  0  0
   17.6993   42.3510   54.0097 C   0  0  0  0  0  0  0  0  0  0  0  0
   18.4058   41.9379   52.8846 C   0  0  0  0  0  0  0  0  0  0  0  0
   19.7718   42.1882   52.8072 C   0  0  0  0  0  0  0  0  0  0  0  0
   20.4922   41.7764   51.6795 N   0  0  0  0  0  0  0  0  0  0  0  0
   20.4049   40.4618   51.1091 C   0  0  0  0  0  0  0  0  0  0  0  0
   21.4133   39.9872   50.5203 O   0  0  0  0  0  0  0  0  0  0  0  0
   19.1501   39.6735   51.1525 C   0  0  0  0  0  0  0  0  0  0  0  0
   18.8211   38.9750   52.3094 C   0  0  0  0  0  0  0  0  0  0  0  0
   17.6429   38.2376   52.3465 C   0  0  0  0  0  0  0  0  0  0  0  0
   16.8280   38.2229   51.2194 C   0  0  0  0  0  0  0  0  0  0  0  0
   17.1669   38.9047   50.1152 N   0  0  0  0  0  0  0  0  0  0  0  0
   18.2979   39.6237   50.0543 C   0  0  0  0  0  0  0  0  0  0  0  0
   20.4392   42.8440   53.8367 C   0  0  0  0  0  0  0  0  0  0  0  0
   19.7262   43.2540   54.9588 C   0  0  0  0  0  0  0  0  0  0  0  0
   20.4021   43.9337   56.0319 N   0  0  0  0  0  0  0  0  0  0  0  0
   21.7969   43.9525   56.1587 C   0  0  0  0  0  0  0  0  0  0  0  0
   22.3408   43.7283   57.3641 N   0  0  0  0  0  0  0  0  0  0  0  0
   23.6697   43.7346   57.5446 C   0  0  0  0  0  0  0  0  0  0  0  0
   24.5076   43.9780   56.4613 C   0  0  0  0  0  0  0  0  0  0  0  0
   23.9346   44.2095   55.2156 C   0  0  0  0  0  0  0  0  0  0  0  0
   24.8021   44.4648   54.0795 C   0  0  0  0  0  0  0  0  0  0  0  0
   25.2253   45.7642   53.8208 C   0  0  0  0  0  0  0  0  0  0  0  0
   26.0567   46.0044   52.7324 C   0  0  0  0  0  0  0  0  0  0  0  0
   26.4396   44.9316   51.9344 C   0  0  0  0  0  0  0  0  0  0  0  0
   26.0181   43.6871   52.2043 N   0  0  0  0  0  0  0  0  0  0  0  0
   25.2160   43.4292   53.2482 C   0  0  0  0  0  0  0  0  0  0  0  0
   22.5962   44.1890   55.1059 N   0  0  0  0  0  0  0  0  0  0  0  0
  1  2  1  0
  2  3  2  0
  3  4  1  0
  4  5  2  0
  5  6  1  0
  6  7  1  0
  7  8  2  0
  7  9  1  0
  9 10  2  0
 10 11  1  0
 11 12  2  0
 12 13  1  0
 13 14  2  0
  5 15  1  0
 15 16  2  0
 16 17  1  0
 17 18  1  0
 18 19  2  0
 19 20  1  0
 20 21  2  0
 21 22  1  0
 22 23  1  0
 23 24  2  0
 24 25  1  0
 25 26  2  0
 26 27  1  0
 27 28  2  0
 22 29  2  0
 16  2  1  0
 29 18  1  0
 14  9  1  0
 28 23  1  0
M  END
>  <BIOSOLVEIT.HYDE_ESTIMATED_AFFINITY_LOWER_BOUNDARY [nM]>  (1) 
15108.087178

>  <BIOSOLVEIT.HYDE_ESTIMATED_AFFINITY_UPPER_BOUNDARY [nM]>  (1) 
1501077.787263

>  <BIOSOLVEIT.HYDE_LIGAND_EFFICIENCY range: ++, +, 0, -, -->  (1) 
--

>  <BIOSOLVEIT.HYDE_LIGAND_LIPOPHILIC_EFFICIENCY range: ++, +, 0, -, -->  (1) 
--

>  <BIOSOLVEIT.INTER_CLASH range: red, yellow, green>  (1) 
red

>  <BIOSOLVEIT.INTRA_CLASH range: red, yellow, green>  (1) 
yellow

>  <BIOSOLVEIT.LOGP>  (1) 
4.23792

>  <BIOSOLVEIT.MOLECULAR WEIGHT>  (1) 
382.425

>  <BIOSOLVEIT.MOLECULE_CHECKSUM>  (1) 
LTIxLjgxNzE7MC43NTIzMTQ=

>  <BIOSOLVEIT.TORSION_QUALITY range: red, yellow, green, not rotatable>  (1) 
red

>  <BIOSOLVEIT.TPSA>  (1) 
92.69

$$$$
6HD6_FYH_3
     RDKit          3D

 27 29  0  0  0  0  0  0  0  0999 V2000
   20.7955   44.3951   53.5913 O   0  0  0  0  0  0  0  0  0  0  0  0
   21.1001   43.4921   54.4179 C   0  0  0  0  0  0  0  0  0  0  0  0
   20.3491   42.2662   54.4429 N   0  0  0  0  0  0  0  0  0  0  0  0
   19.7114   41.6961   53.2867 C   0  0  0  0  0  0  0  0  0  0  0  0
   20.4906   41.1518   52.2706 C   0  0  0  0  0  0  0  0  0  0  0  0
   19.8823   40.5978   51.1484 C   0  0  0  0  0  0  0  0  0  0  0  0
   18.4943   40.5975   51.0590 C   0  0  0  0  0  0  0  0  0  0  0  0
   17.8923   40.0639   49.9755 O   0  0  0  0  0  0  0  0  0  0  0  0
   17.5735   38.6844   49.8058 C   0  0  0  0  0  0  0  0  0  0  0  0
   16.7136   38.2671   50.8060 F   0  0  0  0  0  0  0  0  0  0  0  0
   16.9927   38.4782   48.5674 F   0  0  0  0  0  0  0  0  0  0  0  0
   18.7367   37.9432   49.8810 F   0  0  0  0  0  0  0  0  0  0  0  0
   17.7069   41.1402   52.0701 C   0  0  0  0  0  0  0  0  0  0  0  0
   18.3234   41.6914   53.1886 C   0  0  0  0  0  0  0  0  0  0  0  0
   22.1710   43.7256   55.3669 C   0  0  0  0  0  0  0  0  0  0  0  0
   21.8919   43.7674   56.7291 C   0  0  0  0  0  0  0  0  0  0  0  0
   22.9323   43.9925   57.6249 C   0  0  0  0  0  0  0  0  0  0  0  0
   24.2363   44.1749   57.1763 C   0  0  0  0  0  0  0  0  0  0  0  0
   24.4928   44.1288   55.8095 C   0  0  0  0  0  0  0  0  0  0  0  0
   25.9072   44.3252   55.3102 C   0  0  0  0  0  0  0  0  0  0  0  0
   26.0074   44.1346   53.8563 N   0  0  0  0  0  0  0  0  0  0  0  0
   27.4270   43.9691   53.5123 C   0  0  0  0  0  0  0  0  0  0  0  0
   27.6144   44.1271   52.0114 C   0  0  0  0  0  0  0  0  0  0  0  0
   26.3869   43.9647   51.3111 O   0  0  0  0  0  0  0  0  0  0  0  0
   25.4201   44.9533   51.6466 C   0  0  0  0  0  0  0  0  0  0  0  0
   25.4363   45.2789   53.1313 C   0  0  0  0  0  0  0  0  0  0  0  0
   23.4675   43.9049   54.8961 C   0  0  0  0  0  0  0  0  0  0  0  0
  1  2  2  0
  2  3  1  0
  3  4  1  0
  4  5  2  0
  5  6  1  0
  6  7  2  0
  7  8  1  0
  8  9  1  0
  9 10  1  0
  9 11  1  0
  9 12  1  0
  7 13  1  0
 13 14  2  0
  2 15  1  0
 15 16  2  0
 16 17  1  0
 17 18  2  0
 18 19  1  0
 19 20  1  0
 20 21  1  0
 21 22  1  0
 22 23  1  0
 23 24  1  0
 24 25  1  0
 25 26  1  0
 19 27  2  0
 14  4  1  0
 27 15  1  0
 26 21  1  0
M  CHG  1  21   1
M  END
>  <BIOSOLVEIT.HYDE_ESTIMATED_AFFINITY_LOWER_BOUNDARY [nM]>  (2) 
6457.513984

>  <BIOSOLVEIT.HYDE_ESTIMATED_AFFINITY_UPPER_BOUNDARY [nM]>  (2) 
641592.194151

>  <BIOSOLVEIT.HYDE_LIGAND_EFFICIENCY range: ++, +, 0, -, -->  (2) 
-

>  <BIOSOLVEIT.HYDE_LIGAND_LIPOPHILIC_EFFICIENCY range: ++, +, 0, -, -->  (2) 
--

>  <BIOSOLVEIT.INTER_CLASH range: red, yellow, green>  (2) 
green

>  <BIOSOLVEIT.INTRA_CLASH range: red, yellow, green>  (2) 
yellow

>  <BIOSOLVEIT.LOGP>  (2) 
2.2526

>  <BIOSOLVEIT.MOLECULAR WEIGHT>  (2) 
381.372

>  <BIOSOLVEIT.MOLECULE_CHECKSUM>  (2) 
LTIzLjkyNDI7MC44ODYwODE=

>  <BIOSOLVEIT.TORSION_QUALITY range: red, yellow, green, not rotatable>  (2) 
red

>  <BIOSOLVEIT.TPSA>  (2) 
52

$$$$
6HD4_FYW_1
     RDKit          3D

 32 35  0  0  0  0  0  0  0  0999 V2000
   26.3754   46.9624   63.9564 O   0  0  0  0  0  0  0  0  0  0  0  0
   26.5788   46.1647   63.0019 C   0  0  0  0  0  0  0  0  0  0  0  0
   27.9337   45.8231   62.6635 N   0  0  0  0  0  0  0  0  0  0  0  0
   28.3790   45.4793   61.3395 C   0  0  0  0  0  0  0  0  0  0  0  0
   28.6939   46.4898   60.4364 C   0  0  0  0  0  0  0  0  0  0  0  0
   29.1256   46.1667   59.1536 C   0  0  0  0  0  0  0  0  0  0  0  0
   29.2359   44.8283   58.7913 C   0  0  0  0  0  0  0  0  0  0  0  0
   29.6526   44.5018   57.5501 O   0  0  0  0  0  0  0  0  0  0  0  0
   31.0018   44.2255   57.1807 C   0  0  0  0  0  0  0  0  0  0  0  0
   31.4826   43.1477   57.9029 F   0  0  0  0  0  0  0  0  0  0  0  0
   31.7791   45.3322   57.4618 F   0  0  0  0  0  0  0  0  0  0  0  0
   31.0800   43.9582   55.8257 F   0  0  0  0  0  0  0  0  0  0  0  0
   28.9225   43.8109   59.6879 C   0  0  0  0  0  0  0  0  0  0  0  0
   28.4921   44.1430   60.9681 C   0  0  0  0  0  0  0  0  0  0  0  0
   25.4441   45.5894   62.3049 C   0  0  0  0  0  0  0  0  0  0  0  0
   24.5362   44.7554   62.9496 C   0  0  0  0  0  0  0  0  0  0  0  0
   23.4915   44.2320   62.2905 N   0  0  0  0  0  0  0  0  0  0  0  0
   23.2825   44.4904   60.9909 C   0  0  0  0  0  0  0  0  0  0  0  0
   22.1825   43.9277   60.3339 N   0  0  0  0  0  0  0  0  0  0  0  0
   22.0011   42.4983   60.0687 C   0  0  0  0  0  0  0  0  0  0  0  0
   20.4881   42.3921   59.9961 C   0  0  0  0  0  0  0  0  0  0  0  0
   20.1210   43.6275   59.2064 C   0  0  0  0  0  0  0  0  0  0  0  0
   18.7744   43.9661   59.4079 O   0  0  0  0  0  0  0  0  0  0  0  0
   21.0369   44.6732   59.8032 C   0  0  0  0  0  0  0  0  0  0  0  0
   24.1594   45.3177   60.2959 C   0  0  0  0  0  0  0  0  0  0  0  0
   23.9660   45.6194   58.8907 C   0  0  0  0  0  0  0  0  0  0  0  0
   23.6795   46.9139   58.4709 C   0  0  0  0  0  0  0  0  0  0  0  0
   23.5068   47.1722   57.1667 N   0  0  0  0  0  0  0  0  0  0  0  0
   23.6038   46.2004   56.2471 C   0  0  0  0  0  0  0  0  0  0  0  0
   23.8799   44.9440   56.6262 N   0  0  0  0  0  0  0  0  0  0  0  0
   24.0629   44.6321   57.9164 C   0  0  0  0  0  0  0  0  0  0  0  0
   25.2499   45.8728   60.9570 C   0  0  0  0  0  0  0  0  0  0  0  0
  1  2  2  0
  2  3  1  0
  3  4  1  0
  4  5  2  0
  5  6  1  0
  6  7  2  0
  7  8  1  0
  8  9  1  0
  9 10  1  0
  9 11  1  0
  9 12  1  0
  7 13  1  0
 13 14  2  0
  2 15  1  0
 15 16  2  0
 16 17  1  0
 17 18  2  0
 18 19  1  0
 19 20  1  0
 20 21  1  0
 21 22  1  0
 22 23  1  0
 22 24  1  0
 18 25  1  0
 25 26  1  0
 26 27  2  0
 27 28  1  0
 28 29  2  0
 29 30  1  0
 30 31  2  0
 25 32  2  0
 14  4  1  0
 32 15  1  0
 24 19  1  0
 31 26  1  0
M  END
>  <BIOSOLVEIT.HYDE_ESTIMATED_AFFINITY_LOWER_BOUNDARY [nM]>  (3) 
1589081.886475

>  <BIOSOLVEIT.HYDE_ESTIMATED_AFFINITY_UPPER_BOUNDARY [nM]>  (3) 
157884680.816926

>  <BIOSOLVEIT.HYDE_LIGAND_EFFICIENCY range: ++, +, 0, -, -->  (3) 
--

>  <BIOSOLVEIT.HYDE_LIGAND_LIPOPHILIC_EFFICIENCY range: ++, +, 0, -, -->  (3) 
--

>  <BIOSOLVEIT.INTER_CLASH range: red, yellow, green>  (3) 
green

>  <BIOSOLVEIT.INTRA_CLASH range: red, yellow, green>  (3) 
green

>  <BIOSOLVEIT.LOGP>  (3) 
3.2605

>  <BIOSOLVEIT.MOLECULAR WEIGHT>  (3) 
445.399

>  <BIOSOLVEIT.MOLECULE_CHECKSUM>  (3) 
LTEwLjI3NTk7MC4zMjExMjE=

>  <BIOSOLVEIT.TORSION_QUALITY range: red, yellow, green, not rotatable>  (3) 
red

>  <BIOSOLVEIT.TPSA>  (3) 
100.47

$$$$
2QOH_P3Y_1
     RDKit          3D

 28 31  0  0  0  0  0  0  0  0999 V2000
   23.2696   43.2808   63.9353 C   0  0  0  0  0  0  0  0  0  0  0  0
   23.2734   43.1645   62.5170 O   0  0  0  0  0  0  0  0  0  0  0  0
   22.4510   43.9008   61.7392 C   0  0  0  0  0  0  0  0  0  0  0  0
   21.0781   43.7986   61.9376 C   0  0  0  0  0  0  0  0  0  0  0  0
   20.2042   44.5440   61.1526 C   0  0  0  0  0  0  0  0  0  0  0  0
   20.7032   45.3914   60.1689 C   0  0  0  0  0  0  0  0  0  0  0  0
   22.0765   45.4943   59.9702 C   0  0  0  0  0  0  0  0  0  0  0  0
   22.9502   44.7486   60.7550 C   0  0  0  0  0  0  0  0  0  0  0  0
   24.3824   44.8554   60.5475 C   0  0  0  0  0  0  0  0  0  0  0  0
   25.2994   45.1002   61.5264 C   0  0  0  0  0  0  0  0  0  0  0  0
   26.5236   45.1246   60.9266 N   0  0  0  0  0  0  0  0  0  0  0  0
   26.3826   44.9001   59.5779 C   0  0  0  0  0  0  0  0  0  0  0  0
   27.2393   44.8222   58.5465 N   0  0  0  0  0  0  0  0  0  0  0  0
   26.8280   44.5798   57.2915 C   0  0  0  0  0  0  0  0  0  0  0  0
   25.4817   44.3947   56.9882 C   0  0  0  0  0  0  0  0  0  0  0  0
   24.9961   44.1283   55.6481 C   0  0  0  0  0  0  0  0  0  0  0  0
   23.7961   43.4594   55.4314 C   0  0  0  0  0  0  0  0  0  0  0  0
   23.3626   43.2220   54.1842 N   0  0  0  0  0  0  0  0  0  0  0  0
   24.0647   43.6186   53.1124 C   0  0  0  0  0  0  0  0  0  0  0  0
   25.2714   44.2914   53.2715 C   0  0  0  0  0  0  0  0  0  0  0  0
   26.0630   44.7381   52.1010 C   0  0  0  0  0  0  0  0  0  0  0  0
   26.3670   43.8970   51.2107 O   0  0  0  0  0  0  0  0  0  0  0  0
   26.5072   46.1014   51.9617 N   0  0  0  0  0  0  0  0  0  0  0  0
   25.8304   47.0379   51.0610 C   0  0  0  0  0  0  0  0  0  0  0  0
   27.6940   46.5452   52.6932 C   0  0  0  0  0  0  0  0  0  0  0  0
   25.7437   44.5501   54.5539 C   0  0  0  0  0  0  0  0  0  0  0  0
   24.5675   44.4698   58.0308 C   0  0  0  0  0  0  0  0  0  0  0  0
   25.0509   44.7228   59.3082 C   0  0  0  0  0  0  0  0  0  0  0  0
  1  2  1  0
  2  3  1  0
  3  4  2  0
  4  5  1  0
  5  6  2  0
  6  7  1  0
  7  8  2  0
  8  9  1  0
  9 10  2  0
 10 11  1  0
 11 12  1  0
 12 13  2  0
 13 14  1  0
 14 15  2  0
 15 16  1  0
 16 17  2  0
 17 18  1  0
 18 19  2  0
 19 20  1  0
 20 21  1  0
 21 22  2  0
 21 23  1  0
 23 24  1  0
 23 25  1  0
 20 26  2  0
 15 27  1  0
 27 28  2  0
  8  3  1  0
 28  9  1  0
 28 12  1  0
 26 16  1  0
M  END
>  <BIOSOLVEIT.HYDE_ESTIMATED_AFFINITY_LOWER_BOUNDARY [nM]>  (4) 
26993.607318

>  <BIOSOLVEIT.HYDE_ESTIMATED_AFFINITY_UPPER_BOUNDARY [nM]>  (4) 
2681974.485837

>  <BIOSOLVEIT.HYDE_LIGAND_EFFICIENCY range: ++, +, 0, -, -->  (4) 
--

>  <BIOSOLVEIT.HYDE_LIGAND_LIPOPHILIC_EFFICIENCY range: ++, +, 0, -, -->  (4) 
--

>  <BIOSOLVEIT.INTER_CLASH range: red, yellow, green>  (4) 
green

>  <BIOSOLVEIT.INTRA_CLASH range: red, yellow, green>  (4) 
green

>  <BIOSOLVEIT.LOGP>  (4) 
4.0023

>  <BIOSOLVEIT.MOLECULAR WEIGHT>  (4) 
372.426

>  <BIOSOLVEIT.MOLECULE_CHECKSUM>  (4) 
LTIwLjM3ODQ7MC43Mjc4

>  <BIOSOLVEIT.TORSION_QUALITY range: red, yellow, green, not rotatable>  (4) 
red

>  <BIOSOLVEIT.TPSA>  (4) 
71.11

$$$$
3MS9_MS9_1
     RDKit          3D

 12 12  0  0  0  0  0  0  0  0999 V2000
   22.2493   45.8399   56.2800 C   0  0  0  0  0  0  0  0  0  0  0  0
   21.3769   45.0779   55.4543 O   0  0  0  0  0  0  0  0  0  0  0  0
   21.8179   43.9922   54.6898 C   0  0  0  0  0  0  0  0  0  0  0  0
   23.0295   43.6433   54.7282 O   0  0  0  0  0  0  0  0  0  0  0  0
   20.8607   43.2379   53.9036 C   0  0  0  0  0  0  0  0  0  0  0  0
   21.2381   42.7967   52.6391 C   0  0  0  0  0  0  0  0  0  0  0  0
   20.3434   42.0705   51.8599 C   0  0  0  0  0  0  0  0  0  0  0  0
   19.0736   41.7920   52.3557 C   0  0  0  0  0  0  0  0  0  0  0  0
   17.9244   40.8633   51.3627 Cl  0  0  0  0  0  0  0  0  0  0  0  0
   18.6896   42.2303   53.6190 C   0  0  0  0  0  0  0  0  0  0  0  0
   19.5889   42.9559   54.3939 C   0  0  0  0  0  0  0  0  0  0  0  0
   19.1850   43.3886   55.6629 N   0  0  0  0  0  0  0  0  0  0  0  0
  1  2  1  0
  2  3  1  0
  3  4  2  0
  3  5  1  0
  5  6  2  0
  6  7  1  0
  7  8  2  0
  8  9  1  0
  8 10  1  0
 10 11  2  0
 11 12  1  0
 11  5  1  0
M  END
>  <BIOSOLVEIT.HYDE_ESTIMATED_AFFINITY_LOWER_BOUNDARY [nM]>  (5) 
354.401320

>  <BIOSOLVEIT.HYDE_ESTIMATED_AFFINITY_UPPER_BOUNDARY [nM]>  (5) 
35211.866563

>  <BIOSOLVEIT.HYDE_LIGAND_EFFICIENCY range: ++, +, 0, -, -->  (5) 
++

>  <BIOSOLVEIT.HYDE_LIGAND_LIPOPHILIC_EFFICIENCY range: ++, +, 0, -, -->  (5) 
0

>  <BIOSOLVEIT.INTER_CLASH range: red, yellow, green>  (5) 
green

>  <BIOSOLVEIT.INTRA_CLASH range: red, yellow, green>  (5) 
green

>  <BIOSOLVEIT.LOGP>  (5) 
1.7088

>  <BIOSOLVEIT.MOLECULAR WEIGHT>  (5) 
185.609

>  <BIOSOLVEIT.MOLECULE_CHECKSUM>  (5) 
LTMxLjExOTU7Mi41OTMyOQ==

>  <BIOSOLVEIT.TORSION_QUALITY range: red, yellow, green, not rotatable>  (5) 
green

>  <BIOSOLVEIT.TPSA>  (5) 
52.32

$$$$
3K5V_STJ_3
     RDKit          3D

 27 29  0  0  0  0  0  0  0  0999 V2000
   26.5792   46.1238   51.5012 N   0  0  0  0  0  0  0  0  0  0  0  0
   26.5339   44.7764   51.9787 C   0  0  0  0  0  0  0  0  0  0  0  0
   26.4599   43.8365   51.1412 O   0  0  0  0  0  0  0  0  0  0  0  0
   26.5892   44.4646   53.4280 C   0  0  0  0  0  0  0  0  0  0  0  0
   27.8200   44.2850   54.0509 C   0  0  0  0  0  0  0  0  0  0  0  0
   27.8523   43.9932   55.4108 C   0  0  0  0  0  0  0  0  0  0  0  0
   26.6774   43.8801   56.1468 C   0  0  0  0  0  0  0  0  0  0  0  0
   25.4575   44.0641   55.5035 C   0  0  0  0  0  0  0  0  0  0  0  0
   24.2260   43.9488   56.2615 C   0  0  0  0  0  0  0  0  0  0  0  0
   23.0092   44.0594   55.5967 C   0  0  0  0  0  0  0  0  0  0  0  0
   21.8343   43.9476   56.3332 C   0  0  0  0  0  0  0  0  0  0  0  0
   20.6032   44.0581   55.6740 N   0  0  0  0  0  0  0  0  0  0  0  0
   20.2095   43.2366   54.5619 C   0  0  0  0  0  0  0  0  0  0  0  0
   21.1753   42.7739   53.6736 C   0  0  0  0  0  0  0  0  0  0  0  0
   20.8036   41.9781   52.5943 C   0  0  0  0  0  0  0  0  0  0  0  0
   19.4620   41.6557   52.4188 C   0  0  0  0  0  0  0  0  0  0  0  0
   19.0884   40.8854   51.3757 O   0  0  0  0  0  0  0  0  0  0  0  0
   18.3161   39.6902   51.4691 C   0  0  0  0  0  0  0  0  0  0  0  0
   17.0850   39.9612   52.0390 F   0  0  0  0  0  0  0  0  0  0  0  0
   18.1171   39.1849   50.1990 F   0  0  0  0  0  0  0  0  0  0  0  0
   18.9882   38.7460   52.2244 F   0  0  0  0  0  0  0  0  0  0  0  0
   18.4890   42.1145   53.3018 C   0  0  0  0  0  0  0  0  0  0  0  0
   18.8696   42.9092   54.3782 C   0  0  0  0  0  0  0  0  0  0  0  0
   21.9095   43.7370   57.6562 N   0  0  0  0  0  0  0  0  0  0  0  0
   23.0907   43.6324   58.2836 C   0  0  0  0  0  0  0  0  0  0  0  0
   24.2319   43.7384   57.5864 N   0  0  0  0  0  0  0  0  0  0  0  0
   25.4020   44.3565   54.1447 C   0  0  0  0  0  0  0  0  0  0  0  0
  1  2  1  0
  2  3  2  0
  2  4  1  0
  4  5  2  0
  5  6  1  0
  6  7  2  0
  7  8  1  0
  8  9  1  0
  9 10  2  0
 10 11  1  0
 11 12  1  0
 12 13  1  0
 13 14  2  0
 14 15  1  0
 15 16  2  0
 16 17  1  0
 17 18  1  0
 18 19  1  0
 18 20  1  0
 18 21  1  0
 16 22  1  0
 22 23  2  0
 11 24  2  0
 24 25  1  0
 25 26  2  0
  8 27  2  0
 27  4  1  0
 26  9  1  0
 23 13  1  0
M  END
>  <BIOSOLVEIT.HYDE_ESTIMATED_AFFINITY_LOWER_BOUNDARY [nM]>  (6) 
42.740537

>  <BIOSOLVEIT.HYDE_ESTIMATED_AFFINITY_UPPER_BOUNDARY [nM]>  (6) 
4246.525078

>  <BIOSOLVEIT.HYDE_LIGAND_EFFICIENCY range: ++, +, 0, -, -->  (6) 
0

>  <BIOSOLVEIT.HYDE_LIGAND_LIPOPHILIC_EFFICIENCY range: ++, +, 0, -, -->  (6) 
-

>  <BIOSOLVEIT.INTER_CLASH range: red, yellow, green>  (6) 
green

>  <BIOSOLVEIT.INTRA_CLASH range: red, yellow, green>  (6) 
yellow

>  <BIOSOLVEIT.LOGP>  (6) 
3.8847

>  <BIOSOLVEIT.MOLECULAR WEIGHT>  (6) 
374.321

>  <BIOSOLVEIT.MOLECULE_CHECKSUM>  (6) 
LTM2LjM2MzI7MS4zNDY3OQ==

>  <BIOSOLVEIT.TORSION_QUALITY range: red, yellow, green, not rotatable>  (6) 
red

>  <BIOSOLVEIT.TPSA>  (6) 
90.13

$$$$
3K5V_STI_2
     RDKit          3D

 37 41  0  0  0  0  0  0  0  0999 V2000
   25.9674   48.4472   60.9257 C   0  0  0  0  0  0  0  0  0  0  0  0
   25.2619   47.4672   60.0025 C   0  0  0  0  0  0  0  0  0  0  0  0
   25.6604   46.1346   60.0111 C   0  0  0  0  0  0  0  0  0  0  0  0
   25.0322   45.2154   59.1769 C   0  0  0  0  0  0  0  0  0  0  0  0
   24.0070   45.6434   58.3399 C   0  0  0  0  0  0  0  0  0  0  0  0
   23.3509   44.7014   57.4733 N   0  0  0  0  0  0  0  0  0  0  0  0
   23.8322   44.3520   56.1644 C   0  0  0  0  0  0  0  0  0  0  0  0
   25.0707   44.3872   55.9244 O   0  0  0  0  0  0  0  0  0  0  0  0
   22.8964   43.9014   55.1056 C   0  0  0  0  0  0  0  0  0  0  0  0
   23.3376   42.9964   54.1452 C   0  0  0  0  0  0  0  0  0  0  0  0
   22.4709   42.5637   53.1467 C   0  0  0  0  0  0  0  0  0  0  0  0
   21.1661   43.0477   53.1257 C   0  0  0  0  0  0  0  0  0  0  0  0
   20.2082   42.5842   52.0399 C   0  0  0  0  0  0  0  0  0  0  0  0
   19.5391   41.3100   52.3959 N   0  0  0  0  0  0  0  0  0  0  0  0
   19.9867   40.2497   51.4814 C   0  0  0  0  0  0  0  0  0  0  0  0
   19.2041   38.9675   51.7270 C   0  0  0  0  0  0  0  0  0  0  0  0
   17.7497   39.1927   51.6649 N   0  0  0  0  0  0  0  0  0  0  0  0
   17.1272   38.3304   50.6494 C   0  0  0  0  0  0  0  0  0  0  0  0
   17.3693   40.5932   51.4207 C   0  0  0  0  0  0  0  0  0  0  0  0
   18.0802   41.5255   52.3869 C   0  0  0  0  0  0  0  0  0  0  0  0
   20.7208   43.9526   54.0835 C   0  0  0  0  0  0  0  0  0  0  0  0
   21.5916   44.3822   55.0802 C   0  0  0  0  0  0  0  0  0  0  0  0
   23.6028   46.9744   58.3255 C   0  0  0  0  0  0  0  0  0  0  0  0
   24.2357   47.8882   59.1623 C   0  0  0  0  0  0  0  0  0  0  0  0
   23.8399   49.2312   59.1594 N   0  0  0  0  0  0  0  0  0  0  0  0
   24.4638   50.2109   58.3207 C   0  0  0  0  0  0  0  0  0  0  0  0
   24.0446   51.4830   58.3884 N   0  0  0  0  0  0  0  0  0  0  0  0
   24.5918   52.4420   57.6270 C   0  0  0  0  0  0  0  0  0  0  0  0
   25.6174   52.1159   56.7457 C   0  0  0  0  0  0  0  0  0  0  0  0
   26.0452   50.7941   56.6823 C   0  0  0  0  0  0  0  0  0  0  0  0
   27.1151   50.4451   55.7649 C   0  0  0  0  0  0  0  0  0  0  0  0
   27.7728   51.4522   55.0665 C   0  0  0  0  0  0  0  0  0  0  0  0
   28.7975   51.1140   54.1896 C   0  0  0  0  0  0  0  0  0  0  0  0
   29.1326   49.7725   54.0390 C   0  0  0  0  0  0  0  0  0  0  0  0
   28.4834   48.8191   54.7236 N   0  0  0  0  0  0  0  0  0  0  0  0
   27.4917   49.1194   55.5756 C   0  0  0  0  0  0  0  0  0  0  0  0
   25.4531   49.8844   57.4733 N   0  0  0  0  0  0  0  0  0  0  0  0
  1  2  1  0
  2  3  2  0
  3  4  1  0
  4  5  2  0
  5  6  1  0
  6  7  1  0
  7  8  2  0
  7  9  1  0
  9 10  2  0
 10 11  1  0
 11 12  2  0
 12 13  1  0
 13 14  1  0
 14 15  1  0
 15 16  1  0
 16 17  1  0
 17 18  1  0
 17 19  1  0
 19 20  1  0
 12 21  1  0
 21 22  2  0
  5 23  1  0
 23 24  2  0
 24 25  1  0
 25 26  1  0
 26 27  2  0
 27 28  1  0
 28 29  2  0
 29 30  1  0
 30 31  1  0
 31 32  2  0
 32 33  1  0
 33 34  2  0
 34 35  1  0
 35 36  2  0
 30 37  2  0
 24  2  1  0
 37 26  1  0
 22  9  1  0
 36 31  1  0
 20 14  1  0
M  CHG  2  14   1  17   1
M  END
>  <BIOSOLVEIT.HYDE_ESTIMATED_AFFINITY_LOWER_BOUNDARY [nM]>  (7) 
1909.927957

>  <BIOSOLVEIT.HYDE_ESTIMATED_AFFINITY_UPPER_BOUNDARY [nM]>  (7) 
189762.634908

>  <BIOSOLVEIT.HYDE_LIGAND_EFFICIENCY range: ++, +, 0, -, -->  (7) 
--

>  <BIOSOLVEIT.HYDE_LIGAND_LIPOPHILIC_EFFICIENCY range: ++, +, 0, -, -->  (7) 
-

>  <BIOSOLVEIT.INTER_CLASH range: red, yellow, green>  (7) 
green

>  <BIOSOLVEIT.INTRA_CLASH range: red, yellow, green>  (7) 
green

>  <BIOSOLVEIT.LOGP>  (7) 
1.75612

>  <BIOSOLVEIT.MOLECULAR WEIGHT>  (7) 
495.628

>  <BIOSOLVEIT.MOLECULE_CHECKSUM>  (7) 
LTI2Ljk0NDswLjcyODIxNg==

>  <BIOSOLVEIT.TORSION_QUALITY range: red, yellow, green, not rotatable>  (7) 
red

>  <BIOSOLVEIT.TPSA>  (7) 
88.68

$$$$
