1FPU_PRC_3
     RDKit          3D

 29 32  0  0  0  0  0  0  0  0999 V2000
   20.4183   -6.0845   20.3113 C   0  0  0  0  0  0  0  0  0  0  0  0
   19.9805   -6.6655   21.6459 C   0  0  0  0  0  0  0  0  0  0  0  0
   20.9494   -6.9434   22.6046 C   0  0  0  0  0  0  0  0  0  0  0  0
   20.5777   -7.4753   23.8352 C   0  0  0  0  0  0  0  0  0  0  0  0
   19.2336   -7.7236   24.0931 C   0  0  0  0  0  0  0  0  0  0  0  0
   18.8491   -8.2589   25.3282 N   0  0  0  0  0  0  0  0  0  0  0  0
   18.2079   -7.5008   26.3653 C   0  0  0  0  0  0  0  0  0  0  0  0
   18.4014   -7.8306   27.5663 O   0  0  0  0  0  0  0  0  0  0  0  0
   17.2907   -6.3773   26.0580 C   0  0  0  0  0  0  0  0  0  0  0  0
   16.0293   -6.3448   26.6429 C   0  0  0  0  0  0  0  0  0  0  0  0
   15.1724   -5.2890   26.3529 C   0  0  0  0  0  0  0  0  0  0  0  0
   15.6074   -4.2949   25.4828 C   0  0  0  0  0  0  0  0  0  0  0  0
   16.8287   -4.3484   24.9309 N   0  0  0  0  0  0  0  0  0  0  0  0
   17.6741   -5.3562   25.1948 C   0  0  0  0  0  0  0  0  0  0  0  0
   18.2588   -7.4484   23.1395 C   0  0  0  0  0  0  0  0  0  0  0  0
   18.6379   -6.9168   21.9108 C   0  0  0  0  0  0  0  0  0  0  0  0
   17.6683   -6.6343   20.9411 N   0  0  0  0  0  0  0  0  0  0  0  0
   16.2606   -6.7319   21.1985 C   0  0  0  0  0  0  0  0  0  0  0  0
   15.8304   -6.6987   22.4683 N   0  0  0  0  0  0  0  0  0  0  0  0
   14.5261   -6.7861   22.7683 C   0  0  0  0  0  0  0  0  0  0  0  0
   13.5942   -6.9140   21.7437 C   0  0  0  0  0  0  0  0  0  0  0  0
   14.0497   -6.9478   20.4301 C   0  0  0  0  0  0  0  0  0  0  0  0
   13.0834   -7.0815   19.3546 C   0  0  0  0  0  0  0  0  0  0  0  0
   12.6001   -8.3426   19.0223 C   0  0  0  0  0  0  0  0  0  0  0  0
   11.6743   -8.4664   17.9924 C   0  0  0  0  0  0  0  0  0  0  0  0
   11.2597   -7.3187   17.3250 C   0  0  0  0  0  0  0  0  0  0  0  0
   11.7404   -6.1131   17.6638 N   0  0  0  0  0  0  0  0  0  0  0  0
   12.6340   -5.9671   18.6537 C   0  0  0  0  0  0  0  0  0  0  0  0
   15.3698   -6.8554   20.2012 N   0  0  0  0  0  0  0  0  0  0  0  0
  1  2  1  0
  2  3  2  0
  3  4  1  0
  4  5  2  0
  5  6  1  0
  6  7  1  0
  7  8  2  0
  7  9  1  0
  9 10  2  0
 10 11  1  0
 11 12  2  0
 12 13  1  0
 13 14  2  0
  5 15  1  0
 15 16  2  0
 16 17  1  0
 17 18  1  0
 18 19  2  0
 19 20  1  0
 20 21  2  0
 21 22  1  0
 22 23  1  0
 23 24  2  0
 24 25  1  0
 25 26  2  0
 26 27  1  0
 27 28  2  0
 22 29  2  0
 16  2  1  0
 29 18  1  0
 14  9  1  0
 28 23  1  0
M  END
>  <BIOSOLVEIT.HYDE_ESTIMATED_AFFINITY_LOWER_BOUNDARY [nM]>  (1) 
405065.756009

>  <BIOSOLVEIT.HYDE_ESTIMATED_AFFINITY_UPPER_BOUNDARY [nM]>  (1) 
40245677.797820

>  <BIOSOLVEIT.HYDE_LIGAND_EFFICIENCY range: ++, +, 0, -, -->  (1) 
--

>  <BIOSOLVEIT.HYDE_LIGAND_LIPOPHILIC_EFFICIENCY range: ++, +, 0, -, -->  (1) 
--

>  <BIOSOLVEIT.INTER_CLASH range: red, yellow, green>  (1) 
red

>  <BIOSOLVEIT.INTRA_CLASH range: red, yellow, green>  (1) 
red

>  <BIOSOLVEIT.LOGP>  (1) 
4.23792

>  <BIOSOLVEIT.MOLECULAR WEIGHT>  (1) 
382.425

>  <BIOSOLVEIT.MOLECULE_CHECKSUM>  (1) 
LTEzLjY2NDM7MC40NzExODI=

>  <BIOSOLVEIT.TORSION_QUALITY range: red, yellow, green, not rotatable>  (1) 
red

>  <BIOSOLVEIT.TPSA>  (1) 
92.69

$$$$
6HD6_FYH_2
     RDKit          3D

 27 29  0  0  0  0  0  0  0  0999 V2000
   14.5833   -7.8928   17.2501 O   0  0  0  0  0  0  0  0  0  0  0  0
   15.4172   -8.0986   18.1746 C   0  0  0  0  0  0  0  0  0  0  0  0
   16.5080   -9.0104   17.9590 N   0  0  0  0  0  0  0  0  0  0  0  0
   17.1101   -9.2457   16.6741 C   0  0  0  0  0  0  0  0  0  0  0  0
   16.7835   -8.4225   15.6011 C   0  0  0  0  0  0  0  0  0  0  0  0
   17.3611   -8.6426   14.3544 C   0  0  0  0  0  0  0  0  0  0  0  0
   18.2624   -9.6906   14.1993 C   0  0  0  0  0  0  0  0  0  0  0  0
   18.8289   -9.9150   12.9953 O   0  0  0  0  0  0  0  0  0  0  0  0
   18.1294   -9.9762   11.7542 C   0  0  0  0  0  0  0  0  0  0  0  0
   17.4828   -8.7774   11.5117 F   0  0  0  0  0  0  0  0  0  0  0  0
   17.1876  -10.9844   11.8199 F   0  0  0  0  0  0  0  0  0  0  0  0
   19.0096  -10.2546   10.7239 F   0  0  0  0  0  0  0  0  0  0  0  0
   18.5946  -10.5194   15.2668 C   0  0  0  0  0  0  0  0  0  0  0  0
   18.0126  -10.2919   16.5095 C   0  0  0  0  0  0  0  0  0  0  0  0
   15.2298   -7.4344   19.4876 C   0  0  0  0  0  0  0  0  0  0  0  0
   13.9809   -6.9306   19.8363 C   0  0  0  0  0  0  0  0  0  0  0  0
   13.8238   -6.3108   21.0719 C   0  0  0  0  0  0  0  0  0  0  0  0
   14.8930   -6.1910   21.9538 C   0  0  0  0  0  0  0  0  0  0  0  0
   16.1331   -6.7025   21.5846 C   0  0  0  0  0  0  0  0  0  0  0  0
   17.3089   -6.5777   22.5406 C   0  0  0  0  0  0  0  0  0  0  0  0
   16.8651   -6.3993   23.9430 N   0  0  0  0  0  0  0  0  0  0  0  0
   18.0102   -6.2740   24.8581 C   0  0  0  0  0  0  0  0  0  0  0  0
   17.5549   -6.1714   26.3051 C   0  0  0  0  0  0  0  0  0  0  0  0
   16.1360   -6.1970   26.4147 O   0  0  0  0  0  0  0  0  0  0  0  0
   15.5488   -7.3384   25.8010 C   0  0  0  0  0  0  0  0  0  0  0  0
   16.0137   -7.5222   24.3655 C   0  0  0  0  0  0  0  0  0  0  0  0
   16.3126   -7.3259   20.3539 C   0  0  0  0  0  0  0  0  0  0  0  0
  1  2  2  0
  2  3  1  0
  3  4  1  0
  4  5  2  0
  5  6  1  0
  6  7  2  0
  7  8  1  0
  8  9  1  0
  9 10  1  0
  9 11  1  0
  9 12  1  0
  7 13  1  0
 13 14  2  0
  2 15  1  0
 15 16  2  0
 16 17  1  0
 17 18  2  0
 18 19  1  0
 19 20  1  0
 20 21  1  0
 21 22  1  0
 22 23  1  0
 23 24  1  0
 24 25  1  0
 25 26  1  0
 19 27  2  0
 14  4  1  0
 27 15  1  0
 26 21  1  0
M  CHG  1  21   1
M  END
>  <BIOSOLVEIT.HYDE_ESTIMATED_AFFINITY_LOWER_BOUNDARY [nM]>  (2) 
284.508891

>  <BIOSOLVEIT.HYDE_ESTIMATED_AFFINITY_UPPER_BOUNDARY [nM]>  (2) 
28267.640437

>  <BIOSOLVEIT.HYDE_LIGAND_EFFICIENCY range: ++, +, 0, -, -->  (2) 
-

>  <BIOSOLVEIT.HYDE_LIGAND_LIPOPHILIC_EFFICIENCY range: ++, +, 0, -, -->  (2) 
-

>  <BIOSOLVEIT.INTER_CLASH range: red, yellow, green>  (2) 
red

>  <BIOSOLVEIT.INTRA_CLASH range: red, yellow, green>  (2) 
yellow

>  <BIOSOLVEIT.LOGP>  (2) 
2.2526

>  <BIOSOLVEIT.MOLECULAR WEIGHT>  (2) 
381.372

>  <BIOSOLVEIT.MOLECULE_CHECKSUM>  (2) 
LTMxLjY2NDE7MS4xNzI3NA==

>  <BIOSOLVEIT.TORSION_QUALITY range: red, yellow, green, not rotatable>  (2) 
yellow

>  <BIOSOLVEIT.TPSA>  (2) 
52

$$$$
6HD4_FYW_1
     RDKit          3D

 32 35  0  0  0  0  0  0  0  0999 V2000
   15.5791   -9.6673    8.3361 O   0  0  0  0  0  0  0  0  0  0  0  0
   16.5292   -9.7519    9.1594 C   0  0  0  0  0  0  0  0  0  0  0  0
   16.4313  -10.7038   10.2322 N   0  0  0  0  0  0  0  0  0  0  0  0
   17.0393  -10.5368   11.5255 C   0  0  0  0  0  0  0  0  0  0  0  0
   16.2543  -10.1575   12.6098 C   0  0  0  0  0  0  0  0  0  0  0  0
   16.8335   -9.9938   13.8644 C   0  0  0  0  0  0  0  0  0  0  0  0
   18.1987  -10.2128   14.0156 C   0  0  0  0  0  0  0  0  0  0  0  0
   18.7727  -10.0567   15.2269 O   0  0  0  0  0  0  0  0  0  0  0  0
   18.5930  -10.9276   16.3416 C   0  0  0  0  0  0  0  0  0  0  0  0
   19.0167  -12.2052   16.0216 F   0  0  0  0  0  0  0  0  0  0  0  0
   17.2506  -10.9713   16.6643 F   0  0  0  0  0  0  0  0  0  0  0  0
   19.2990  -10.4559   17.4338 F   0  0  0  0  0  0  0  0  0  0  0  0
   18.9917  -10.5919   12.9366 C   0  0  0  0  0  0  0  0  0  0  0  0
   18.4042  -10.7537   11.6863 C   0  0  0  0  0  0  0  0  0  0  0  0
   17.7286   -8.8991    8.9722 C   0  0  0  0  0  0  0  0  0  0  0  0
   18.3240   -8.2310   10.0374 C   0  0  0  0  0  0  0  0  0  0  0  0
   19.4089   -7.4641    9.8513 N   0  0  0  0  0  0  0  0  0  0  0  0
   19.9590   -7.3119    8.6373 C   0  0  0  0  0  0  0  0  0  0  0  0
   21.0915   -6.5038    8.4785 N   0  0  0  0  0  0  0  0  0  0  0  0
   22.3974   -6.9281    7.9679 C   0  0  0  0  0  0  0  0  0  0  0  0
   22.9193   -5.7139    7.2258 C   0  0  0  0  0  0  0  0  0  0  0  0
   22.1407   -4.5271    7.7625 C   0  0  0  0  0  0  0  0  0  0  0  0
   21.4173   -3.9547    6.6814 O   0  0  0  0  0  0  0  0  0  0  0  0
   21.2040   -5.0861    8.8160 C   0  0  0  0  0  0  0  0  0  0  0  0
   19.4045   -7.9566    7.5359 C   0  0  0  0  0  0  0  0  0  0  0  0
   19.9713   -7.8155    6.2086 C   0  0  0  0  0  0  0  0  0  0  0  0
   20.2633   -8.9330    5.4340 C   0  0  0  0  0  0  0  0  0  0  0  0
   20.7847   -8.7809    4.2083 N   0  0  0  0  0  0  0  0  0  0  0  0
   21.0352   -7.5625    3.7063 C   0  0  0  0  0  0  0  0  0  0  0  0
   20.7619   -6.4690    4.4329 N   0  0  0  0  0  0  0  0  0  0  0  0
   20.2391   -6.5650    5.6628 C   0  0  0  0  0  0  0  0  0  0  0  0
   18.2797   -8.7575    7.7030 C   0  0  0  0  0  0  0  0  0  0  0  0
  1  2  2  0
  2  3  1  0
  3  4  1  0
  4  5  2  0
  5  6  1  0
  6  7  2  0
  7  8  1  0
  8  9  1  0
  9 10  1  0
  9 11  1  0
  9 12  1  0
  7 13  1  0
 13 14  2  0
  2 15  1  0
 15 16  2  0
 16 17  1  0
 17 18  2  0
 18 19  1  0
 19 20  1  0
 20 21  1  0
 21 22  1  0
 22 23  1  0
 22 24  1  0
 18 25  1  0
 25 26  1  0
 26 27  2  0
 27 28  1  0
 28 29  2  0
 29 30  1  0
 30 31  2  0
 25 32  2  0
 14  4  1  0
 32 15  1  0
 24 19  1  0
 31 26  1  0
M  END
>  <BIOSOLVEIT.HYDE_ESTIMATED_AFFINITY_LOWER_BOUNDARY [nM]>  (3) 
17697.511534

>  <BIOSOLVEIT.HYDE_ESTIMATED_AFFINITY_UPPER_BOUNDARY [nM]>  (3) 
1758352.406849

>  <BIOSOLVEIT.HYDE_LIGAND_EFFICIENCY range: ++, +, 0, -, -->  (3) 
--

>  <BIOSOLVEIT.HYDE_LIGAND_LIPOPHILIC_EFFICIENCY range: ++, +, 0, -, -->  (3) 
--

>  <BIOSOLVEIT.INTER_CLASH range: red, yellow, green>  (3) 
red

>  <BIOSOLVEIT.INTRA_CLASH range: red, yellow, green>  (3) 
yellow

>  <BIOSOLVEIT.LOGP>  (3) 
3.2605

>  <BIOSOLVEIT.MOLECULAR WEIGHT>  (3) 
445.399

>  <BIOSOLVEIT.MOLECULE_CHECKSUM>  (3) 
LTIxLjQyNTswLjY2OTUz

>  <BIOSOLVEIT.TORSION_QUALITY range: red, yellow, green, not rotatable>  (3) 
yellow

>  <BIOSOLVEIT.TPSA>  (3) 
100.47

$$$$
2QOH_P3Y_1
     RDKit          3D

 28 31  0  0  0  0  0  0  0  0999 V2000
   19.6466  -12.2103   13.1887 C   0  0  0  0  0  0  0  0  0  0  0  0
   19.0050  -11.0771   12.6121 O   0  0  0  0  0  0  0  0  0  0  0  0
   18.3568  -10.1213   13.3119 C   0  0  0  0  0  0  0  0  0  0  0  0
   18.7930   -9.8272   14.5995 C   0  0  0  0  0  0  0  0  0  0  0  0
   18.1462   -8.8476   15.3463 C   0  0  0  0  0  0  0  0  0  0  0  0
   17.0631   -8.1624   14.8057 C   0  0  0  0  0  0  0  0  0  0  0  0
   16.6267   -8.4560   13.5176 C   0  0  0  0  0  0  0  0  0  0  0  0
   17.2732   -9.4358   12.7709 C   0  0  0  0  0  0  0  0  0  0  0  0
   16.8178   -9.7424   11.4279 C   0  0  0  0  0  0  0  0  0  0  0  0
   15.7021  -10.4655   11.1252 C   0  0  0  0  0  0  0  0  0  0  0  0
   15.6259  -10.5277    9.7653 N   0  0  0  0  0  0  0  0  0  0  0  0
   16.6868   -9.8518    9.2110 C   0  0  0  0  0  0  0  0  0  0  0  0
   17.0876   -9.6075    7.9527 N   0  0  0  0  0  0  0  0  0  0  0  0
   18.1915   -8.8937    7.6794 C   0  0  0  0  0  0  0  0  0  0  0  0
   18.9869   -8.3641    8.6921 C   0  0  0  0  0  0  0  0  0  0  0  0
   20.1843   -7.5861    8.4403 C   0  0  0  0  0  0  0  0  0  0  0  0
   21.2931   -7.6706    9.2760 C   0  0  0  0  0  0  0  0  0  0  0  0
   22.3924   -6.9432    9.0271 N   0  0  0  0  0  0  0  0  0  0  0  0
   22.4603   -6.1169    7.9727 C   0  0  0  0  0  0  0  0  0  0  0  0
   21.3806   -5.9937    7.1048 C   0  0  0  0  0  0  0  0  0  0  0  0
   21.4346   -5.0886    5.9365 C   0  0  0  0  0  0  0  0  0  0  0  0
   21.0139   -3.9058    6.0558 O   0  0  0  0  0  0  0  0  0  0  0  0
   21.9478   -5.5328    4.6667 N   0  0  0  0  0  0  0  0  0  0  0  0
   21.9679   -4.6164    3.5212 C   0  0  0  0  0  0  0  0  0  0  0  0
   22.2966   -6.9446    4.4961 C   0  0  0  0  0  0  0  0  0  0  0  0
   20.2287   -6.7366    7.3401 C   0  0  0  0  0  0  0  0  0  0  0  0
   18.6027   -8.5986   10.0059 C   0  0  0  0  0  0  0  0  0  0  0  0
   17.4514   -9.3433   10.2281 C   0  0  0  0  0  0  0  0  0  0  0  0
  1  2  1  0
  2  3  1  0
  3  4  2  0
  4  5  1  0
  5  6  2  0
  6  7  1  0
  7  8  2  0
  8  9  1  0
  9 10  2  0
 10 11  1  0
 11 12  1  0
 12 13  2  0
 13 14  1  0
 14 15  2  0
 15 16  1  0
 16 17  2  0
 17 18  1  0
 18 19  2  0
 19 20  1  0
 20 21  1  0
 21 22  2  0
 21 23  1  0
 23 24  1  0
 23 25  1  0
 20 26  2  0
 15 27  1  0
 27 28  2  0
  8  3  1  0
 28  9  1  0
 28 12  1  0
 26 16  1  0
M  END
>  <BIOSOLVEIT.HYDE_ESTIMATED_AFFINITY_LOWER_BOUNDARY [nM]>  (4) 
2867.951993

>  <BIOSOLVEIT.HYDE_ESTIMATED_AFFINITY_UPPER_BOUNDARY [nM]>  (4) 
284947.987137

>  <BIOSOLVEIT.HYDE_LIGAND_EFFICIENCY range: ++, +, 0, -, -->  (4) 
-

>  <BIOSOLVEIT.HYDE_LIGAND_LIPOPHILIC_EFFICIENCY range: ++, +, 0, -, -->  (4) 
--

>  <BIOSOLVEIT.INTER_CLASH range: red, yellow, green>  (4) 
yellow

>  <BIOSOLVEIT.INTRA_CLASH range: red, yellow, green>  (4) 
green

>  <BIOSOLVEIT.LOGP>  (4) 
4.0023

>  <BIOSOLVEIT.MOLECULAR WEIGHT>  (4) 
372.426

>  <BIOSOLVEIT.MOLECULE_CHECKSUM>  (4) 
LTI1LjkzNjI7MC45MjYyOTQ=

>  <BIOSOLVEIT.TORSION_QUALITY range: red, yellow, green, not rotatable>  (4) 
yellow

>  <BIOSOLVEIT.TPSA>  (4) 
71.11

$$$$
3KF4_B90_1
     RDKit          3D

 32 36  0  0  0  0  0  0  0  0999 V2000
   19.1706  -12.4703   13.6627 C   0  0  0  0  0  0  0  0  0  0  0  0
   18.5402  -11.4319   14.5767 C   0  0  0  0  0  0  0  0  0  0  0  0
   18.4922  -11.6760   15.9444 C   0  0  0  0  0  0  0  0  0  0  0  0
   17.9193  -10.7389   16.7987 C   0  0  0  0  0  0  0  0  0  0  0  0
   17.3902   -9.5499   16.3072 C   0  0  0  0  0  0  0  0  0  0  0  0
   16.7873   -8.4839   16.9212 N   0  0  0  0  0  0  0  0  0  0  0  0
   16.4498   -7.5963   16.0103 N   0  0  0  0  0  0  0  0  0  0  0  0
   16.8165   -8.0403   14.8255 C   0  0  0  0  0  0  0  0  0  0  0  0
   17.4357   -9.3140   14.9573 C   0  0  0  0  0  0  0  0  0  0  0  0
   18.0085  -10.2409   14.0888 C   0  0  0  0  0  0  0  0  0  0  0  0
   18.0603   -9.9877   12.6614 C   0  0  0  0  0  0  0  0  0  0  0  0
   16.9822  -10.1139   11.8787 C   0  0  0  0  0  0  0  0  0  0  0  0
   17.0146   -9.8673   10.4629 N   0  0  0  0  0  0  0  0  0  0  0  0
   15.9713  -10.0864    9.6123 C   0  0  0  0  0  0  0  0  0  0  0  0
   16.3646   -9.7520    8.4029 N   0  0  0  0  0  0  0  0  0  0  0  0
   17.6577   -9.3169    8.4705 C   0  0  0  0  0  0  0  0  0  0  0  0
   18.5886   -8.8472    7.5506 C   0  0  0  0  0  0  0  0  0  0  0  0
   18.2432   -8.7459    6.1975 N   0  0  0  0  0  0  0  0  0  0  0  0
   19.1445   -8.2973    5.1715 C   0  0  0  0  0  0  0  0  0  0  0  0
   20.0943   -7.3272    5.4751 C   0  0  0  0  0  0  0  0  0  0  0  0
   20.9737   -6.8838    4.4930 C   0  0  0  0  0  0  0  0  0  0  0  0
   20.8883   -7.4217    3.2129 C   0  0  0  0  0  0  0  0  0  0  0  0
   21.9936   -6.8705    1.9590 P   0  0  0  0  0  0  0  0  0  0  0  0
   21.9129   -5.0620    1.8382 C   0  0  0  0  0  0  0  0  0  0  0  0
   21.5189   -7.6014    0.3674 C   0  0  0  0  0  0  0  0  0  0  0  0
   23.4109   -7.2823    2.2879 O   0  0  0  0  0  0  0  0  0  0  0  0
   19.9399   -8.3917    2.9062 C   0  0  0  0  0  0  0  0  0  0  0  0
   19.0617   -8.8335    3.8905 C   0  0  0  0  0  0  0  0  0  0  0  0
   19.8215   -8.4868    7.9405 N   0  0  0  0  0  0  0  0  0  0  0  0
   20.2023   -8.5649    9.2231 C   0  0  0  0  0  0  0  0  0  0  0  0
   19.3267   -9.0150   10.1329 N   0  0  0  0  0  0  0  0  0  0  0  0
   18.0877   -9.3801    9.7724 C   0  0  0  0  0  0  0  0  0  0  0  0
  1  2  1  0
  2  3  2  0
  3  4  1  0
  4  5  2  0
  5  6  1  0
  6  7  1  0
  7  8  2  0
  8  9  1  0
  9 10  2  0
 10 11  1  0
 11 12  2  0
 12 13  1  0
 13 14  1  0
 14 15  2  0
 15 16  1  0
 16 17  2  0
 17 18  1  0
 18 19  1  0
 19 20  2  0
 20 21  1  0
 21 22  2  0
 22 23  1  0
 23 24  1  0
 23 25  1  0
 23 26  2  0
 22 27  1  0
 27 28  2  0
 17 29  1  0
 29 30  2  0
 30 31  1  0
 31 32  2  0
 10  2  1  0
 32 13  1  0
  9  5  1  0
 32 16  1  0
 28 19  1  0
M  END
>  <BIOSOLVEIT.HYDE_ESTIMATED_AFFINITY_LOWER_BOUNDARY [nM]>  (5) 
0.087281

>  <BIOSOLVEIT.HYDE_ESTIMATED_AFFINITY_UPPER_BOUNDARY [nM]>  (5) 
8.671846

>  <BIOSOLVEIT.HYDE_LIGAND_EFFICIENCY range: ++, +, 0, -, -->  (5) 
0

>  <BIOSOLVEIT.HYDE_LIGAND_LIPOPHILIC_EFFICIENCY range: ++, +, 0, -, -->  (5) 
0

>  <BIOSOLVEIT.INTER_CLASH range: red, yellow, green>  (5) 
green

>  <BIOSOLVEIT.INTRA_CLASH range: red, yellow, green>  (5) 
red

>  <BIOSOLVEIT.LOGP>  (5) 
4.63052

>  <BIOSOLVEIT.MOLECULAR WEIGHT>  (5) 
443.449

>  <BIOSOLVEIT.MOLECULE_CHECKSUM>  (5) 
LTUxLjcxNzM7MS42MTYxNw==

>  <BIOSOLVEIT.TORSION_QUALITY range: red, yellow, green, not rotatable>  (5) 
green

>  <BIOSOLVEIT.TPSA>  (5) 
101.38

$$$$
3MS9_MS9_1
     RDKit          3D

 12 12  0  0  0  0  0  0  0  0999 V2000
   15.9146   -8.7010   17.0691 C   0  0  0  0  0  0  0  0  0  0  0  0
   15.7192   -7.4748   17.7630 O   0  0  0  0  0  0  0  0  0  0  0  0
   14.6154   -7.2427   18.5899 C   0  0  0  0  0  0  0  0  0  0  0  0
   13.4830   -7.0113   18.0827 O   0  0  0  0  0  0  0  0  0  0  0  0
   14.7543   -7.3245   20.0311 C   0  0  0  0  0  0  0  0  0  0  0  0
   13.6032   -7.4275   20.8061 C   0  0  0  0  0  0  0  0  0  0  0  0
   13.7022   -7.5082   22.1914 C   0  0  0  0  0  0  0  0  0  0  0  0
   14.9577   -7.4846   22.7903 C   0  0  0  0  0  0  0  0  0  0  0  0
   15.0902   -7.5872   24.5626 Cl  0  0  0  0  0  0  0  0  0  0  0  0
   16.1126   -7.3817   22.0215 C   0  0  0  0  0  0  0  0  0  0  0  0
   16.0073   -7.3016   20.6365 C   0  0  0  0  0  0  0  0  0  0  0  0
   17.1805   -7.1987   19.8789 N   0  0  0  0  0  0  0  0  0  0  0  0
  1  2  1  0
  2  3  1  0
  3  4  2  0
  3  5  1  0
  5  6  2  0
  6  7  1  0
  7  8  2  0
  8  9  1  0
  8 10  1  0
 10 11  2  0
 11 12  1  0
 11  5  1  0
M  END
>  <BIOSOLVEIT.HYDE_ESTIMATED_AFFINITY_LOWER_BOUNDARY [nM]>  (6) 
44396.684473

>  <BIOSOLVEIT.HYDE_ESTIMATED_AFFINITY_UPPER_BOUNDARY [nM]>  (6) 
4411073.096354

>  <BIOSOLVEIT.HYDE_LIGAND_EFFICIENCY range: ++, +, 0, -, -->  (6) 
0

>  <BIOSOLVEIT.HYDE_LIGAND_LIPOPHILIC_EFFICIENCY range: ++, +, 0, -, -->  (6) 
--

>  <BIOSOLVEIT.INTER_CLASH range: red, yellow, green>  (6) 
green

>  <BIOSOLVEIT.INTRA_CLASH range: red, yellow, green>  (6) 
green

>  <BIOSOLVEIT.LOGP>  (6) 
1.7088

>  <BIOSOLVEIT.MOLECULAR WEIGHT>  (6) 
185.609

>  <BIOSOLVEIT.MOLECULE_CHECKSUM>  (6) 
LTE5LjE0NTsxLjU5NTQx

>  <BIOSOLVEIT.TORSION_QUALITY range: red, yellow, green, not rotatable>  (6) 
yellow

>  <BIOSOLVEIT.TPSA>  (6) 
52.32

$$$$
3K5V_STJ_1
     RDKit          3D

 27 29  0  0  0  0  0  0  0  0999 V2000
   23.0930   -4.5249    5.5643 N   0  0  0  0  0  0  0  0  0  0  0  0
   21.8290   -4.6473    6.2220 C   0  0  0  0  0  0  0  0  0  0  0  0
   20.8965   -3.8629    5.8977 O   0  0  0  0  0  0  0  0  0  0  0  0
   21.6005   -5.6608    7.2814 C   0  0  0  0  0  0  0  0  0  0  0  0
   22.4566   -5.7227    8.3761 C   0  0  0  0  0  0  0  0  0  0  0  0
   22.2267   -6.6795    9.3596 C   0  0  0  0  0  0  0  0  0  0  0  0
   21.1600   -7.5666    9.2601 C   0  0  0  0  0  0  0  0  0  0  0  0
   20.3162   -7.4866    8.1567 C   0  0  0  0  0  0  0  0  0  0  0  0
   19.2004   -8.4064    8.0427 C   0  0  0  0  0  0  0  0  0  0  0  0
   18.4249   -8.6723    9.1664 C   0  0  0  0  0  0  0  0  0  0  0  0
   17.3573   -9.5561    9.0462 C   0  0  0  0  0  0  0  0  0  0  0  0
   16.5702   -9.8319   10.1716 N   0  0  0  0  0  0  0  0  0  0  0  0
   17.0879   -9.9407   11.5086 C   0  0  0  0  0  0  0  0  0  0  0  0
   16.2933   -9.5617   12.5860 C   0  0  0  0  0  0  0  0  0  0  0  0
   16.7859   -9.6637   13.8834 C   0  0  0  0  0  0  0  0  0  0  0  0
   18.0750  -10.1459   14.0842 C   0  0  0  0  0  0  0  0  0  0  0  0
   18.5647  -10.2488   15.3375 O   0  0  0  0  0  0  0  0  0  0  0  0
   18.2531  -11.2900   16.2606 C   0  0  0  0  0  0  0  0  0  0  0  0
   18.6262  -12.5163   15.7401 F   0  0  0  0  0  0  0  0  0  0  0  0
   16.8986  -11.2889   16.5416 F   0  0  0  0  0  0  0  0  0  0  0  0
   18.9510  -11.0731   17.4330 F   0  0  0  0  0  0  0  0  0  0  0  0
   18.8771  -10.5266   13.0126 C   0  0  0  0  0  0  0  0  0  0  0  0
   18.3764  -10.4216   11.7190 C   0  0  0  0  0  0  0  0  0  0  0  0
   17.1084  -10.1225    7.8555 N   0  0  0  0  0  0  0  0  0  0  0  0
   17.8652   -9.8561    6.7803 C   0  0  0  0  0  0  0  0  0  0  0  0
   18.8981   -9.0061    6.8814 N   0  0  0  0  0  0  0  0  0  0  0  0
   20.5275   -6.5377    7.1615 C   0  0  0  0  0  0  0  0  0  0  0  0
  1  2  1  0
  2  3  2  0
  2  4  1  0
  4  5  2  0
  5  6  1  0
  6  7  2  0
  7  8  1  0
  8  9  1  0
  9 10  2  0
 10 11  1  0
 11 12  1  0
 12 13  1  0
 13 14  2  0
 14 15  1  0
 15 16  2  0
 16 17  1  0
 17 18  1  0
 18 19  1  0
 18 20  1  0
 18 21  1  0
 16 22  1  0
 22 23  2  0
 11 24  2  0
 24 25  1  0
 25 26  2  0
  8 27  2  0
 27  4  1  0
 26  9  1  0
 23 13  1  0
M  END
>  <BIOSOLVEIT.HYDE_ESTIMATED_AFFINITY_LOWER_BOUNDARY [nM]>  (7) 
10.080059

>  <BIOSOLVEIT.HYDE_ESTIMATED_AFFINITY_UPPER_BOUNDARY [nM]>  (7) 
1001.513410

>  <BIOSOLVEIT.HYDE_LIGAND_EFFICIENCY range: ++, +, 0, -, -->  (7) 
0

>  <BIOSOLVEIT.HYDE_LIGAND_LIPOPHILIC_EFFICIENCY range: ++, +, 0, -, -->  (7) 
-

>  <BIOSOLVEIT.INTER_CLASH range: red, yellow, green>  (7) 
green

>  <BIOSOLVEIT.INTRA_CLASH range: red, yellow, green>  (7) 
green

>  <BIOSOLVEIT.LOGP>  (7) 
3.8847

>  <BIOSOLVEIT.MOLECULAR WEIGHT>  (7) 
374.321

>  <BIOSOLVEIT.MOLECULE_CHECKSUM>  (7) 
LTM5Ljk0NDM7MS40Nzk0Mg==

>  <BIOSOLVEIT.TORSION_QUALITY range: red, yellow, green, not rotatable>  (7) 
yellow

>  <BIOSOLVEIT.TPSA>  (7) 
90.13

$$$$
3K5V_STI_1
     RDKit          3D

 37 41  0  0  0  0  0  0  0  0999 V2000
   13.6947   -8.1363   17.7775 C   0  0  0  0  0  0  0  0  0  0  0  0
   14.3949   -7.4830   18.9580 C   0  0  0  0  0  0  0  0  0  0  0  0
   13.7374   -6.4707   19.6492 C   0  0  0  0  0  0  0  0  0  0  0  0
   14.3538   -5.8552   20.7339 C   0  0  0  0  0  0  0  0  0  0  0  0
   15.6277   -6.2629   21.1160 C   0  0  0  0  0  0  0  0  0  0  0  0
   16.2571   -5.6499   22.2060 N   0  0  0  0  0  0  0  0  0  0  0  0
   15.6749   -4.5747   22.9626 C   0  0  0  0  0  0  0  0  0  0  0  0
   14.8843   -3.7700   22.3976 O   0  0  0  0  0  0  0  0  0  0  0  0
   16.0309   -4.3681   24.3877 C   0  0  0  0  0  0  0  0  0  0  0  0
   15.9035   -3.1000   24.9456 C   0  0  0  0  0  0  0  0  0  0  0  0
   16.2324   -2.8913   26.2813 C   0  0  0  0  0  0  0  0  0  0  0  0
   16.6871   -3.9639   27.0426 C   0  0  0  0  0  0  0  0  0  0  0  0
   17.0510   -3.7503   28.5031 C   0  0  0  0  0  0  0  0  0  0  0  0
   15.8503   -3.6661   29.3687 N   0  0  0  0  0  0  0  0  0  0  0  0
   16.2399   -3.1809   30.7007 C   0  0  0  0  0  0  0  0  0  0  0  0
   15.0541   -3.2281   31.6537 C   0  0  0  0  0  0  0  0  0  0  0  0
   14.4377   -4.5653   31.6958 N   0  0  0  0  0  0  0  0  0  0  0  0
   14.4281   -5.0967   33.0670 C   0  0  0  0  0  0  0  0  0  0  0  0
   15.0655   -5.5440   30.7936 C   0  0  0  0  0  0  0  0  0  0  0  0
   15.1892   -4.9842   29.3867 C   0  0  0  0  0  0  0  0  0  0  0  0
   16.8163   -5.2332   26.4888 C   0  0  0  0  0  0  0  0  0  0  0  0
   16.4861   -5.4369   25.1525 C   0  0  0  0  0  0  0  0  0  0  0  0
   16.2917   -7.2746   20.4298 C   0  0  0  0  0  0  0  0  0  0  0  0
   15.6692   -7.8855   19.3459 C   0  0  0  0  0  0  0  0  0  0  0  0
   16.3407   -8.9304   18.6283 N   0  0  0  0  0  0  0  0  0  0  0  0
   16.5706   -8.8705   17.2479 C   0  0  0  0  0  0  0  0  0  0  0  0
   16.0751   -7.8359   16.5530 N   0  0  0  0  0  0  0  0  0  0  0  0
   16.2638   -7.7267   15.2297 C   0  0  0  0  0  0  0  0  0  0  0  0
   16.9890   -8.7051   14.5576 C   0  0  0  0  0  0  0  0  0  0  0  0
   17.4988   -9.7741   15.2864 C   0  0  0  0  0  0  0  0  0  0  0  0
   18.2568  -10.7999   14.5925 C   0  0  0  0  0  0  0  0  0  0  0  0
   18.6978  -10.5640   13.2947 C   0  0  0  0  0  0  0  0  0  0  0  0
   19.4241  -11.5484   12.6339 C   0  0  0  0  0  0  0  0  0  0  0  0
   19.6871  -12.7427   13.2962 C   0  0  0  0  0  0  0  0  0  0  0  0
   19.2510  -12.9469   14.5481 N   0  0  0  0  0  0  0  0  0  0  0  0
   18.5487  -12.0131   15.2072 C   0  0  0  0  0  0  0  0  0  0  0  0
   17.2721   -9.8210   16.6094 N   0  0  0  0  0  0  0  0  0  0  0  0
  1  2  1  0
  2  3  2  0
  3  4  1  0
  4  5  2  0
  5  6  1  0
  6  7  1  0
  7  8  2  0
  7  9  1  0
  9 10  2  0
 10 11  1  0
 11 12  2  0
 12 13  1  0
 13 14  1  0
 14 15  1  0
 15 16  1  0
 16 17  1  0
 17 18  1  0
 17 19  1  0
 19 20  1  0
 12 21  1  0
 21 22  2  0
  5 23  1  0
 23 24  2  0
 24 25  1  0
 25 26  1  0
 26 27  2  0
 27 28  1  0
 28 29  2  0
 29 30  1  0
 30 31  1  0
 31 32  2  0
 32 33  1  0
 33 34  2  0
 34 35  1  0
 35 36  2  0
 30 37  2  0
 24  2  1  0
 37 26  1  0
 22  9  1  0
 36 31  1  0
 20 14  1  0
M  CHG  2  14   1  17   1
M  END
>  <BIOSOLVEIT.HYDE_ESTIMATED_AFFINITY_LOWER_BOUNDARY [nM]>  (8) 
1480530.146042

>  <BIOSOLVEIT.HYDE_ESTIMATED_AFFINITY_UPPER_BOUNDARY [nM]>  (8) 
147099423.596236

>  <BIOSOLVEIT.HYDE_LIGAND_EFFICIENCY range: ++, +, 0, -, -->  (8) 
--

>  <BIOSOLVEIT.HYDE_LIGAND_LIPOPHILIC_EFFICIENCY range: ++, +, 0, -, -->  (8) 
--

>  <BIOSOLVEIT.INTER_CLASH range: red, yellow, green>  (8) 
yellow

>  <BIOSOLVEIT.INTRA_CLASH range: red, yellow, green>  (8) 
red

>  <BIOSOLVEIT.LOGP>  (8) 
1.75612

>  <BIOSOLVEIT.MOLECULAR WEIGHT>  (8) 
495.628

>  <BIOSOLVEIT.MOLECULE_CHECKSUM>  (8) 
LTEwLjQ1MTM7MC4yODI0Njc=

>  <BIOSOLVEIT.TORSION_QUALITY range: red, yellow, green, not rotatable>  (8) 
green

>  <BIOSOLVEIT.TPSA>  (8) 
88.68

$$$$
3KFA_B91_3
     RDKit          3D

 41 46  0  0  0  0  0  0  0  0999 V2000
   20.4180   -5.2830   23.9134 C   0  0  0  0  0  0  0  0  0  0  0  0
   18.9625   -5.4822   23.5215 C   0  0  0  0  0  0  0  0  0  0  0  0
   18.5276   -5.9435   22.3180 C   0  0  0  0  0  0  0  0  0  0  0  0
   17.1689   -5.9683   22.3945 N   0  0  0  0  0  0  0  0  0  0  0  0
   16.2922   -6.3741   21.3817 C   0  0  0  0  0  0  0  0  0  0  0  0
   16.6861   -7.3800   20.5061 C   0  0  0  0  0  0  0  0  0  0  0  0
   15.8082   -7.7778   19.5027 C   0  0  0  0  0  0  0  0  0  0  0  0
   16.1974   -8.8174   18.5880 N   0  0  0  0  0  0  0  0  0  0  0  0
   16.0461   -8.7221   17.1616 C   0  0  0  0  0  0  0  0  0  0  0  0
   15.1047   -8.0349   16.6782 O   0  0  0  0  0  0  0  0  0  0  0  0
   16.9319   -9.4455   16.2700 C   0  0  0  0  0  0  0  0  0  0  0  0
   17.7643  -10.4366   16.7788 C   0  0  0  0  0  0  0  0  0  0  0  0
   18.6150  -11.1292   15.9238 C   0  0  0  0  0  0  0  0  0  0  0  0
   18.6306  -10.8297   14.5657 C   0  0  0  0  0  0  0  0  0  0  0  0
   19.5728  -11.6079   13.6617 C   0  0  0  0  0  0  0  0  0  0  0  0
   17.7955   -9.8370   14.0625 C   0  0  0  0  0  0  0  0  0  0  0  0
   17.7879   -9.4942   12.6232 C   0  0  0  0  0  0  0  0  0  0  0  0
   17.2137  -10.2845   11.7080 C   0  0  0  0  0  0  0  0  0  0  0  0
   17.2009   -9.9697   10.3444 N   0  0  0  0  0  0  0  0  0  0  0  0
   16.1429  -10.1772    9.5092 C   0  0  0  0  0  0  0  0  0  0  0  0
   16.4932   -9.7653    8.3106 N   0  0  0  0  0  0  0  0  0  0  0  0
   17.7730   -9.2916    8.3697 C   0  0  0  0  0  0  0  0  0  0  0  0
   18.6636   -8.7423    7.4542 C   0  0  0  0  0  0  0  0  0  0  0  0
   18.2794   -8.5798    6.1176 N   0  0  0  0  0  0  0  0  0  0  0  0
   19.0391   -8.0203    4.9847 C   0  0  0  0  0  0  0  0  0  0  0  0
   18.8225   -8.8140    3.7287 C   0  0  0  0  0  0  0  0  0  0  0  0
   20.1025   -8.9636    4.5005 C   0  0  0  0  0  0  0  0  0  0  0  0
   19.8943   -8.3626    7.8326 N   0  0  0  0  0  0  0  0  0  0  0  0
   20.3114   -8.4970    9.0991 C   0  0  0  0  0  0  0  0  0  0  0  0
   19.4751   -9.0243   10.0044 N   0  0  0  0  0  0  0  0  0  0  0  0
   18.2393   -9.4104    9.6553 C   0  0  0  0  0  0  0  0  0  0  0  0
   16.9427   -9.1408   14.9128 C   0  0  0  0  0  0  0  0  0  0  0  0
   14.5563   -7.1871   19.3665 C   0  0  0  0  0  0  0  0  0  0  0  0
   14.1878   -6.1829   20.2552 C   0  0  0  0  0  0  0  0  0  0  0  0
   12.8240   -5.5253   20.1217 C   0  0  0  0  0  0  0  0  0  0  0  0
   12.8673   -4.2134   20.5616 F   0  0  0  0  0  0  0  0  0  0  0  0
   11.9056   -6.2249   20.8820 F   0  0  0  0  0  0  0  0  0  0  0  0
   12.4081   -5.5234   18.8015 F   0  0  0  0  0  0  0  0  0  0  0  0
   15.0463   -5.7669   21.2676 C   0  0  0  0  0  0  0  0  0  0  0  0
   16.8147   -5.5265   23.6342 C   0  0  0  0  0  0  0  0  0  0  0  0
   17.8907   -5.2295   24.3248 N   0  0  0  0  0  0  0  0  0  0  0  0
  1  2  1  0
  2  3  2  0
  3  4  1  0
  4  5  1  0
  5  6  2  0
  6  7  1  0
  7  8  1  0
  8  9  1  0
  9 10  2  0
  9 11  1  0
 11 12  2  0
 12 13  1  0
 13 14  2  0
 14 15  1  0
 14 16  1  0
 16 17  1  0
 17 18  2  0
 18 19  1  0
 19 20  1  0
 20 21  2  0
 21 22  1  0
 22 23  2  0
 23 24  1  0
 24 25  1  0
 25 26  1  0
 26 27  1  0
 23 28  1  0
 28 29  2  0
 29 30  1  0
 30 31  2  0
 16 32  2  0
  7 33  2  0
 33 34  1  0
 34 35  1  0
 35 36  1  0
 35 37  1  0
 35 38  1  0
 34 39  2  0
  4 40  1  0
 40 41  2  0
 41  2  1  0
 39  5  1  0
 32 11  1  0
 31 19  1  0
 31 22  1  0
 27 25  1  0
M  END
>  <BIOSOLVEIT.HYDE_ESTIMATED_AFFINITY_LOWER_BOUNDARY [nM]>  (9) 
0.009131

>  <BIOSOLVEIT.HYDE_ESTIMATED_AFFINITY_UPPER_BOUNDARY [nM]>  (9) 
0.907206

>  <BIOSOLVEIT.HYDE_LIGAND_EFFICIENCY range: ++, +, 0, -, -->  (9) 
0

>  <BIOSOLVEIT.HYDE_LIGAND_LIPOPHILIC_EFFICIENCY range: ++, +, 0, -, -->  (9) 
0

>  <BIOSOLVEIT.INTER_CLASH range: red, yellow, green>  (9) 
green

>  <BIOSOLVEIT.INTRA_CLASH range: red, yellow, green>  (9) 
green

>  <BIOSOLVEIT.LOGP>  (9) 
6.10214

>  <BIOSOLVEIT.MOLECULAR WEIGHT>  (9) 
558.565

>  <BIOSOLVEIT.MOLECULE_CHECKSUM>  (9) 
LTU3LjMxMzU7MS4zOTc4OQ==

>  <BIOSOLVEIT.TORSION_QUALITY range: red, yellow, green, not rotatable>  (9) 
yellow

>  <BIOSOLVEIT.TPSA>  (9) 
102.55

$$$$
