1JCQ_739_2
     RDKit          3D

 34 34  0  0  0  0  0  0  0  0999 V2000
   11.7723  -69.1044   -3.9679 C   0  0  0  0  0  0  0  0  0  0  0  0
   12.3846  -68.1512   -2.9344 C   0  0  0  0  0  0  0  0  0  0  0  0
   12.5807  -68.7174   -1.4967 C   0  0  0  0  0  0  0  0  0  0  0  0
   11.6362  -68.0601   -0.4732 C   0  0  0  0  0  0  0  0  0  0  0  0
   14.0575  -68.8021   -0.9685 C   0  0  0  0  0  0  0  0  0  0  0  0
   14.1339  -69.4205    0.4580 C   0  0  0  0  0  0  0  0  0  0  0  0
   13.9488  -70.8268    0.4360 O   0  0  0  0  0  0  0  0  0  0  0  0
   14.3051  -71.4292    1.6676 C   0  0  0  0  0  0  0  0  0  0  0  0
   13.4900  -72.7213    1.8270 C   0  0  0  0  0  0  0  0  0  0  0  0
   13.8282  -73.4488    3.1041 C   0  0  0  0  0  0  0  0  0  0  0  0
   12.8792  -73.5289    4.1175 C   0  0  0  0  0  0  0  0  0  0  0  0
   13.1976  -74.2008    5.2929 C   0  0  0  0  0  0  0  0  0  0  0  0
   14.4489  -74.7854    5.4530 C   0  0  0  0  0  0  0  0  0  0  0  0
   15.3922  -74.6999    4.4339 C   0  0  0  0  0  0  0  0  0  0  0  0
   15.0830  -74.0301    3.2547 C   0  0  0  0  0  0  0  0  0  0  0  0
   14.0234  -70.4785    2.8036 C   0  0  0  0  0  0  0  0  0  0  0  0
   12.8388  -70.1034    3.0215 O   0  0  0  0  0  0  0  0  0  0  0  0
   15.0974  -70.0048    3.6293 N   0  0  0  0  0  0  0  0  0  0  0  0
   14.8766  -69.0788    4.7462 C   0  0  0  0  0  0  0  0  0  0  0  0
   13.5657  -69.4078    5.4851 C   0  0  0  0  0  0  0  0  0  0  0  0
   12.8131  -68.1666    5.9847 C   0  0  0  0  0  0  0  0  0  0  0  0
   13.1259  -66.7699    4.9175 S   0  0  0  0  0  0  0  0  0  0  0  0
   12.6169  -67.1683    3.2608 C   0  0  0  0  0  0  0  0  0  0  0  0
   12.3451  -65.5799    5.4003 O   0  0  0  0  0  0  0  0  0  0  0  0
   14.5916  -66.4385    4.9230 O   0  0  0  0  0  0  0  0  0  0  0  0
   16.0565  -69.0596    5.6833 C   0  0  0  0  0  0  0  0  0  0  0  0
   16.2497  -68.0900    6.4645 O   0  0  0  0  0  0  0  0  0  0  0  0
   16.9758  -70.1006    5.6507 O   0  0  0  0  0  0  0  0  0  0  0  0
   14.9798  -69.4675   -1.9234 N   0  0  0  0  0  0  0  0  0  0  0  0
   16.0315  -68.5640   -2.4539 C   0  0  0  0  0  0  0  0  0  0  0  0
   17.4176  -69.2501   -2.5835 C   0  0  0  0  0  0  0  0  0  0  0  0
   17.4191  -70.2297   -3.6810 N   0  0  0  0  0  0  0  0  0  0  0  0
   18.5080  -68.1809   -2.8082 C   0  0  0  0  0  0  0  0  0  0  0  0
   17.8879  -66.7998   -3.7524 S   0  0  0  0  0  0  0  0  0  0  0  0
  1  2  1  0
  2  3  1  0
  3  4  1  0
  3  5  1  0
  5  6  1  0
  6  7  1  0
  7  8  1  0
  8  9  1  0
  9 10  1  0
 10 11  2  0
 11 12  1  0
 12 13  2  0
 13 14  1  0
 14 15  2  0
  8 16  1  0
 16 17  2  0
 16 18  1  0
 18 19  1  0
 19 20  1  0
 20 21  1  0
 21 22  1  0
 22 23  1  0
 22 24  2  0
 22 25  2  0
 19 26  1  0
 26 27  2  0
 26 28  1  0
  5 29  1  0
 29 30  1  0
 30 31  1  0
 31 32  1  0
 31 33  1  0
 33 34  1  0
 15 10  1  0
M  CHG  2  28  -1  29   1
M  END
>  <BIOSOLVEIT.HYDE_ESTIMATED_AFFINITY_LOWER_BOUNDARY [nM]>  (1) 
166490957.204317

>  <BIOSOLVEIT.HYDE_ESTIMATED_AFFINITY_UPPER_BOUNDARY [nM]>  (1) 
16541860970.692297

>  <BIOSOLVEIT.HYDE_LIGAND_EFFICIENCY range: ++, +, 0, -, -->  (1) 
--

>  <BIOSOLVEIT.HYDE_LIGAND_LIPOPHILIC_EFFICIENCY range: ++, +, 0, -, -->  (1) 
--

>  <BIOSOLVEIT.INTER_CLASH range: red, yellow, green>  (1) 
yellow

>  <BIOSOLVEIT.INTRA_CLASH range: red, yellow, green>  (1) 
red

>  <BIOSOLVEIT.LOGP>  (1) 
-0.4503

>  <BIOSOLVEIT.MOLECULAR WEIGHT>  (1) 
517.706

>  <BIOSOLVEIT.MOLECULE_CHECKSUM>  (1) 
MS4yNTU2OTsw

>  <BIOSOLVEIT.TORSION_QUALITY range: red, yellow, green, not rotatable>  (1) 
red

>  <BIOSOLVEIT.TPSA>  (1) 
155.23

$$$$
1SA4_JAN_3
     RDKit          3D

 34 38  0  0  0  0  0  0  0  0999 V2000
   15.3763  -75.5704    4.1862 C   0  0  0  0  0  0  0  0  0  0  0  0
   14.0575  -75.6542    4.8309 N   0  0  0  0  0  0  0  0  0  0  0  0
   13.2719  -76.7686    4.8811 C   0  0  0  0  0  0  0  0  0  0  0  0
   12.1763  -76.4579    5.5386 N   0  0  0  0  0  0  0  0  0  0  0  0
   12.2446  -75.1467    5.9165 C   0  0  0  0  0  0  0  0  0  0  0  0
   13.4281  -74.6323    5.4735 C   0  0  0  0  0  0  0  0  0  0  0  0
   13.9357  -73.2128    5.6665 C   0  0  0  0  0  0  0  0  0  0  0  0
   13.0255  -72.5077    6.6039 N   0  0  0  0  0  0  0  0  0  0  0  0
   13.9686  -72.4442    4.3246 C   0  0  0  0  0  0  0  0  0  0  0  0
   13.9862  -71.0529    4.3372 C   0  0  0  0  0  0  0  0  0  0  0  0
   14.0167  -70.3467    3.1392 C   0  0  0  0  0  0  0  0  0  0  0  0
   14.0285  -71.0487    1.9390 C   0  0  0  0  0  0  0  0  0  0  0  0
   14.0674  -70.1599    0.3971 Cl  0  0  0  0  0  0  0  0  0  0  0  0
   14.0111  -72.4391    1.9245 C   0  0  0  0  0  0  0  0  0  0  0  0
   13.9807  -73.1442    3.1231 C   0  0  0  0  0  0  0  0  0  0  0  0
   15.3631  -73.2587    6.2647 C   0  0  0  0  0  0  0  0  0  0  0  0
   16.2195  -72.1820    6.0802 C   0  0  0  0  0  0  0  0  0  0  0  0
   17.4887  -72.2705    6.6363 C   0  0  0  0  0  0  0  0  0  0  0  0
   17.8884  -73.3951    7.3514 C   0  0  0  0  0  0  0  0  0  0  0  0
   17.0050  -74.4529    7.5157 C   0  0  0  0  0  0  0  0  0  0  0  0
   15.7274  -74.3950    6.9709 C   0  0  0  0  0  0  0  0  0  0  0  0
   17.4260  -75.6298    8.2569 C   0  0  0  0  0  0  0  0  0  0  0  0
   16.5392  -76.7630    8.4475 C   0  0  0  0  0  0  0  0  0  0  0  0
   15.8191  -76.8743    9.6322 C   0  0  0  0  0  0  0  0  0  0  0  0
   14.9713  -77.9636    9.8068 C   0  0  0  0  0  0  0  0  0  0  0  0
   14.8390  -78.9321    8.8173 C   0  0  0  0  0  0  0  0  0  0  0  0
   15.5689  -78.8000    7.6405 C   0  0  0  0  0  0  0  0  0  0  0  0
   15.4144  -80.0292    6.3625 Cl  0  0  0  0  0  0  0  0  0  0  0  0
   16.4229  -77.7196    7.4446 C   0  0  0  0  0  0  0  0  0  0  0  0
   18.6296  -75.7331    8.7908 C   0  0  0  0  0  0  0  0  0  0  0  0
   19.5646  -74.6359    8.6330 C   0  0  0  0  0  0  0  0  0  0  0  0
   20.6768  -74.7309    9.1271 O   0  0  0  0  0  0  0  0  0  0  0  0
   19.1653  -73.4989    7.9176 N   0  0  0  0  0  0  0  0  0  0  0  0
   20.1539  -72.4156    7.7835 C   0  0  0  0  0  0  0  0  0  0  0  0
  1  2  1  0
  2  3  1  0
  3  4  2  0
  4  5  1  0
  5  6  2  0
  6  7  1  0
  7  8  1  0
  7  9  1  0
  9 10  2  0
 10 11  1  0
 11 12  2  0
 12 13  1  0
 12 14  1  0
 14 15  2  0
  7 16  1  0
 16 17  2  0
 17 18  1  0
 18 19  2  0
 19 20  1  0
 20 21  2  0
 20 22  1  0
 22 23  1  0
 23 24  2  0
 24 25  1  0
 25 26  2  0
 26 27  1  0
 27 28  1  0
 27 29  2  0
 22 30  2  0
 30 31  1  0
 31 32  2  0
 31 33  1  0
 33 34  1  0
  6  2  1  0
 15  9  1  0
 21 16  1  0
 29 23  1  0
 33 19  1  0
M  CHG  1   8   1
M  END
>  <BIOSOLVEIT.HYDE_ESTIMATED_AFFINITY_LOWER_BOUNDARY [nM]>  (2) 
15892.555023

>  <BIOSOLVEIT.HYDE_ESTIMATED_AFFINITY_UPPER_BOUNDARY [nM]>  (2) 
1579019.305731

>  <BIOSOLVEIT.HYDE_LIGAND_EFFICIENCY range: ++, +, 0, -, -->  (2) 
--

>  <BIOSOLVEIT.HYDE_LIGAND_LIPOPHILIC_EFFICIENCY range: ++, +, 0, -, -->  (2) 
--

>  <BIOSOLVEIT.INTER_CLASH range: red, yellow, green>  (2) 
green

>  <BIOSOLVEIT.INTRA_CLASH range: red, yellow, green>  (2) 
yellow

>  <BIOSOLVEIT.LOGP>  (2) 
4.6688

>  <BIOSOLVEIT.MOLECULAR WEIGHT>  (2) 
490.412

>  <BIOSOLVEIT.MOLECULE_CHECKSUM>  (2) 
LTIxLjY5MTY7MC42Mzc5ODk=

>  <BIOSOLVEIT.TORSION_QUALITY range: red, yellow, green, not rotatable>  (2) 
green

>  <BIOSOLVEIT.TPSA>  (2) 
65.77

$$$$
1MZC_BNE_2
     RDKit          3D

 35 38  0  0  0  0  0  0  0  0999 V2000
   13.9612  -74.3709    3.0773 C   0  0  0  0  0  0  0  0  0  0  0  0
   13.6822  -72.8871    3.3528 C   0  0  0  0  0  0  0  0  0  0  0  0
   14.7851  -72.1460    4.0929 C   0  0  0  0  0  0  0  0  0  0  0  0
   14.3048  -70.7243    4.3313 C   0  0  0  0  0  0  0  0  0  0  0  0
   14.5371  -70.1089    5.5570 C   0  0  0  0  0  0  0  0  0  0  0  0
   14.0883  -68.8069    5.7533 C   0  0  0  0  0  0  0  0  0  0  0  0
   13.4163  -68.1211    4.7468 C   0  0  0  0  0  0  0  0  0  0  0  0
   13.1944  -68.7554    3.5288 C   0  0  0  0  0  0  0  0  0  0  0  0
   12.5168  -68.0709    2.5084 O   0  0  0  0  0  0  0  0  0  0  0  0
   13.1279  -67.4399    1.4832 C   0  0  0  0  0  0  0  0  0  0  0  0
   13.7739  -68.2054    0.5182 C   0  0  0  0  0  0  0  0  0  0  0  0
   14.4059  -67.5621   -0.5408 C   0  0  0  0  0  0  0  0  0  0  0  0
   15.1235  -68.3983   -1.6136 C   0  0  0  0  0  0  0  0  0  0  0  0
   16.2613  -67.5206   -2.1862 C   0  0  0  0  0  0  0  0  0  0  0  0
   14.2240  -68.7749   -2.7243 N   0  0  0  0  0  0  0  0  0  0  0  0
   15.6825  -69.6860   -0.9874 C   0  0  0  0  0  0  0  0  0  0  0  0
   15.0826  -70.9107   -1.0106 C   0  0  0  0  0  0  0  0  0  0  0  0
   15.9083  -71.7700   -0.3482 N   0  0  0  0  0  0  0  0  0  0  0  0
   16.9659  -71.1040    0.0633 C   0  0  0  0  0  0  0  0  0  0  0  0
   16.8624  -69.8039   -0.3228 N   0  0  0  0  0  0  0  0  0  0  0  0
   17.8327  -68.7295   -0.0647 C   0  0  0  0  0  0  0  0  0  0  0  0
   14.3987  -66.1747   -0.6434 C   0  0  0  0  0  0  0  0  0  0  0  0
   13.7495  -65.4194    0.3275 C   0  0  0  0  0  0  0  0  0  0  0  0
   13.1139  -66.0521    1.3910 C   0  0  0  0  0  0  0  0  0  0  0  0
   12.4043  -65.2268    2.4521 C   0  0  0  0  0  0  0  0  0  0  0  0
   11.8652  -64.5993    3.2613 N   0  0  0  0  0  0  0  0  0  0  0  0
   13.6347  -70.0567    3.3113 C   0  0  0  0  0  0  0  0  0  0  0  0
   16.0326  -72.0263    3.2261 C   0  0  0  0  0  0  0  0  0  0  0  0
   16.9456  -73.2479    3.2522 C   0  0  0  0  0  0  0  0  0  0  0  0
   17.9697  -73.1405    4.3704 C   0  0  0  0  0  0  0  0  0  0  0  0
   17.3923  -72.2278    5.4405 C   0  0  0  0  0  0  0  0  0  0  0  0
   16.2372  -72.8541    6.1021 N   0  0  0  0  0  0  0  0  0  0  0  0
   16.4091  -73.5088    7.4090 C   0  0  0  0  0  0  0  0  0  0  0  0
   14.9927  -72.8046    5.4527 C   0  0  0  0  0  0  0  0  0  0  0  0
   14.0377  -73.3188    6.0065 O   0  0  0  0  0  0  0  0  0  0  0  0
  1  2  1  0
  2  3  1  0
  3  4  1  0
  4  5  2  0
  5  6  1  0
  6  7  2  0
  7  8  1  0
  8  9  1  0
  9 10  1  0
 10 11  2  0
 11 12  1  0
 12 13  1  0
 13 14  1  0
 13 15  1  0
 13 16  1  0
 16 17  2  0
 17 18  1  0
 18 19  2  0
 19 20  1  0
 20 21  1  0
 12 22  2  0
 22 23  1  0
 23 24  2  0
 24 25  1  0
 25 26  3  0
  8 27  2  0
  3 28  1  0
 28 29  1  0
 29 30  1  0
 30 31  1  0
 31 32  1  0
 32 33  1  0
 32 34  1  0
 34 35  2  0
 34  3  1  0
 27  4  1  0
 24 10  1  0
 20 16  1  0
M  CHG  1  15   1
M  END
>  <BIOSOLVEIT.HYDE_ESTIMATED_AFFINITY_LOWER_BOUNDARY [nM]>  (3) 
16230596984.920162

>  <BIOSOLVEIT.HYDE_ESTIMATED_AFFINITY_UPPER_BOUNDARY [nM]>  (3) 
1612605773335.807617

>  <BIOSOLVEIT.HYDE_LIGAND_EFFICIENCY range: ++, +, 0, -, -->  (3) 
--

>  <BIOSOLVEIT.HYDE_LIGAND_LIPOPHILIC_EFFICIENCY range: ++, +, 0, -, -->  (3) 
--

>  <BIOSOLVEIT.INTER_CLASH range: red, yellow, green>  (3) 
green

>  <BIOSOLVEIT.INTRA_CLASH range: red, yellow, green>  (3) 
yellow

>  <BIOSOLVEIT.LOGP>  (3) 
3.87958

>  <BIOSOLVEIT.MOLECULAR WEIGHT>  (3) 
472.61

>  <BIOSOLVEIT.MOLECULE_CHECKSUM>  (3) 
MTIuNjA4Njsw

>  <BIOSOLVEIT.TORSION_QUALITY range: red, yellow, green, not rotatable>  (3) 
green

>  <BIOSOLVEIT.TPSA>  (3) 
98.79

$$$$
1LD7_U66_1
     RDKit          3D

 34 39  0  0  0  0  0  0  0  0999 V2000
   17.9112  -70.0441    4.7963 N   0  0  0  0  0  0  0  0  0  0  0  0
   18.2709  -70.7164    3.9254 C   0  0  0  0  0  0  0  0  0  0  0  0
   18.7346  -71.5759    2.8172 C   0  0  0  0  0  0  0  0  0  0  0  0
   20.0731  -72.2300    3.1980 C   0  0  0  0  0  0  0  0  0  0  0  0
   19.9039  -73.2684    4.2823 C   0  0  0  0  0  0  0  0  0  0  0  0
   18.7492  -73.9467    4.4695 C   0  0  0  0  0  0  0  0  0  0  0  0
   17.5071  -73.6546    3.6508 C   0  0  0  0  0  0  0  0  0  0  0  0
   17.7287  -72.6961    2.4670 C   0  0  0  0  0  0  0  0  0  0  0  0
   16.4881  -72.2060    1.9269 O   0  0  0  0  0  0  0  0  0  0  0  0
   15.5951  -71.3627    2.6018 C   0  0  0  0  0  0  0  0  0  0  0  0
   15.6385  -69.9888    2.3568 C   0  0  0  0  0  0  0  0  0  0  0  0
   14.8014  -69.1216    3.0558 C   0  0  0  0  0  0  0  0  0  0  0  0
   13.9059  -69.6202    4.0132 C   0  0  0  0  0  0  0  0  0  0  0  0
   13.0917  -68.7338    4.7296 C   0  0  0  0  0  0  0  0  0  0  0  0
   12.2050  -69.2149    5.6881 C   0  0  0  0  0  0  0  0  0  0  0  0
   12.1183  -70.5821    5.9423 C   0  0  0  0  0  0  0  0  0  0  0  0
   12.9133  -71.5023    5.2363 C   0  0  0  0  0  0  0  0  0  0  0  0
   13.8223  -71.0196    4.2531 C   0  0  0  0  0  0  0  0  0  0  0  0
   14.6448  -71.8822    3.4963 C   0  0  0  0  0  0  0  0  0  0  0  0
   12.7967  -72.9054    5.5505 N   0  0  0  0  0  0  0  0  0  0  0  0
   11.5380  -73.6267    5.6941 C   0  0  0  0  0  0  0  0  0  0  0  0
   11.8701  -74.8836    6.5202 C   0  0  0  0  0  0  0  0  0  0  0  0
   13.3882  -75.1077    6.3703 C   0  0  0  0  0  0  0  0  0  0  0  0
   13.6464  -76.0834    5.2855 N   0  0  0  0  0  0  0  0  0  0  0  0
   15.0503  -76.1758    4.8502 C   0  0  0  0  0  0  0  0  0  0  0  0
   15.9922  -76.7172    5.9363 C   0  0  0  0  0  0  0  0  0  0  0  0
   17.3260  -77.0806    5.3332 C   0  0  0  0  0  0  0  0  0  0  0  0
   17.6128  -78.2906    4.7371 C   0  0  0  0  0  0  0  0  0  0  0  0
   18.8577  -78.2555    4.2221 N   0  0  0  0  0  0  0  0  0  0  0  0
   19.3051  -77.0149    4.5074 C   0  0  0  0  0  0  0  0  0  0  0  0
   18.3960  -76.2707    5.1699 N   0  0  0  0  0  0  0  0  0  0  0  0
   18.6087  -74.8992    5.6374 C   0  0  0  0  0  0  0  0  0  0  0  0
   13.8445  -73.7304    6.0315 C   0  0  0  0  0  0  0  0  0  0  0  0
   15.0070  -73.3012    6.2602 O   0  0  0  0  0  0  0  0  0  0  0  0
  1  2  3  0
  2  3  1  0
  3  4  1  0
  4  5  1  0
  5  6  2  0
  6  7  1  0
  7  8  1  0
  8  9  1  0
  9 10  1  0
 10 11  2  0
 11 12  1  0
 12 13  2  0
 13 14  1  0
 14 15  2  0
 15 16  1  0
 16 17  2  0
 17 18  1  0
 18 19  2  0
 17 20  1  0
 20 21  1  0
 21 22  1  0
 22 23  1  0
 23 24  1  0
 24 25  1  0
 25 26  1  0
 26 27  1  0
 27 28  2  0
 28 29  1  0
 29 30  2  0
 30 31  1  0
 31 32  1  0
 23 33  1  0
 33 34  2  0
  8  3  1  0
 19 10  1  0
 33 20  1  0
 32  6  1  0
 18 13  1  0
 31 27  1  0
M  CHG  1  24   1
M  END
>  <BIOSOLVEIT.HYDE_ESTIMATED_AFFINITY_LOWER_BOUNDARY [nM]>  (4) 
127.547752

>  <BIOSOLVEIT.HYDE_ESTIMATED_AFFINITY_UPPER_BOUNDARY [nM]>  (4) 
12672.623306

>  <BIOSOLVEIT.HYDE_LIGAND_EFFICIENCY range: ++, +, 0, -, -->  (4) 
-

>  <BIOSOLVEIT.HYDE_LIGAND_LIPOPHILIC_EFFICIENCY range: ++, +, 0, -, -->  (4) 
-

>  <BIOSOLVEIT.INTER_CLASH range: red, yellow, green>  (4) 
green

>  <BIOSOLVEIT.INTRA_CLASH range: red, yellow, green>  (4) 
green

>  <BIOSOLVEIT.LOGP>  (4) 
2.56868

>  <BIOSOLVEIT.MOLECULAR WEIGHT>  (4) 
454.551

>  <BIOSOLVEIT.MOLECULE_CHECKSUM>  (4) 
LTMzLjY1Mjk7MC45ODk3OTE=

>  <BIOSOLVEIT.TORSION_QUALITY range: red, yellow, green, not rotatable>  (4) 
not rotatable

>  <BIOSOLVEIT.TPSA>  (4) 
87.76

$$$$
1S63_778_3
     RDKit          3D

 29 32  0  0  0  0  0  0  0  0999 V2000
   15.4400  -67.9475    5.9354 N   0  0  0  0  0  0  0  0  0  0  0  0
   15.1515  -69.0109    5.5824 C   0  0  0  0  0  0  0  0  0  0  0  0
   14.7948  -70.3332    5.1400 C   0  0  0  0  0  0  0  0  0  0  0  0
   15.7981  -71.2688    4.9080 C   0  0  0  0  0  0  0  0  0  0  0  0
   15.4683  -72.5506    4.4809 C   0  0  0  0  0  0  0  0  0  0  0  0
   14.1300  -72.8790    4.2906 C   0  0  0  0  0  0  0  0  0  0  0  0
   13.7557  -74.2759    3.8226 C   0  0  0  0  0  0  0  0  0  0  0  0
   13.3747  -75.1307    4.9502 N   0  0  0  0  0  0  0  0  0  0  0  0
   12.2415  -74.9941    5.6978 C   0  0  0  0  0  0  0  0  0  0  0  0
   12.2466  -75.9403    6.6108 N   0  0  0  0  0  0  0  0  0  0  0  0
   13.3776  -76.6921    6.4616 C   0  0  0  0  0  0  0  0  0  0  0  0
   14.0949  -76.1877    5.4164 C   0  0  0  0  0  0  0  0  0  0  0  0
   15.4202  -76.7070    4.8837 C   0  0  0  0  0  0  0  0  0  0  0  0
   16.1022  -77.6370    5.8216 N   0  0  0  0  0  0  0  0  0  0  0  0
   16.6105  -76.9615    7.0268 C   0  0  0  0  0  0  0  0  0  0  0  0
   17.5185  -75.8061    6.6364 C   0  0  0  0  0  0  0  0  0  0  0  0
   18.5418  -76.2356    5.6657 N   0  0  0  0  0  0  0  0  0  0  0  0
   19.6599  -75.4274    5.4440 C   0  0  0  0  0  0  0  0  0  0  0  0
   20.6709  -75.3823    6.3985 C   0  0  0  0  0  0  0  0  0  0  0  0
   21.7824  -74.5771    6.1719 C   0  0  0  0  0  0  0  0  0  0  0  0
   21.8907  -73.8229    5.0086 C   0  0  0  0  0  0  0  0  0  0  0  0
   20.8683  -73.8831    4.0671 C   0  0  0  0  0  0  0  0  0  0  0  0
   20.9881  -72.9258    2.5715 Cl  0  0  0  0  0  0  0  0  0  0  0  0
   19.7480  -74.6814    4.2734 C   0  0  0  0  0  0  0  0  0  0  0  0
   18.4096  -77.4332    4.9465 C   0  0  0  0  0  0  0  0  0  0  0  0
   19.2393  -77.7563    4.1092 O   0  0  0  0  0  0  0  0  0  0  0  0
   17.2183  -78.3543    5.1854 C   0  0  0  0  0  0  0  0  0  0  0  0
   13.1243  -71.9461    4.5210 C   0  0  0  0  0  0  0  0  0  0  0  0
   13.4573  -70.6647    4.9488 C   0  0  0  0  0  0  0  0  0  0  0  0
  1  2  3  0
  2  3  1  0
  3  4  2  0
  4  5  1  0
  5  6  2  0
  6  7  1  0
  7  8  1  0
  8  9  1  0
  9 10  2  0
 10 11  1  0
 11 12  2  0
 12 13  1  0
 13 14  1  0
 14 15  1  0
 15 16  1  0
 16 17  1  0
 17 18  1  0
 18 19  2  0
 19 20  1  0
 20 21  2  0
 21 22  1  0
 22 23  1  0
 22 24  2  0
 17 25  1  0
 25 26  2  0
 25 27  1  0
  6 28  1  0
 28 29  2  0
 29  3  1  0
 12  8  1  0
 27 14  1  0
 24 18  1  0
M  CHG  1  14   1
M  END
>  <BIOSOLVEIT.HYDE_ESTIMATED_AFFINITY_LOWER_BOUNDARY [nM]>  (5) 
423.272293

>  <BIOSOLVEIT.HYDE_ESTIMATED_AFFINITY_UPPER_BOUNDARY [nM]>  (5) 
42054.604850

>  <BIOSOLVEIT.HYDE_LIGAND_EFFICIENCY range: ++, +, 0, -, -->  (5) 
-

>  <BIOSOLVEIT.HYDE_LIGAND_LIPOPHILIC_EFFICIENCY range: ++, +, 0, -, -->  (5) 
-

>  <BIOSOLVEIT.INTER_CLASH range: red, yellow, green>  (5) 
green

>  <BIOSOLVEIT.INTRA_CLASH range: red, yellow, green>  (5) 
green

>  <BIOSOLVEIT.LOGP>  (5) 
1.88818

>  <BIOSOLVEIT.MOLECULAR WEIGHT>  (5) 
406.895

>  <BIOSOLVEIT.MOLECULE_CHECKSUM>  (5) 
LTMwLjY3OTM7MS4wNTc5MQ==

>  <BIOSOLVEIT.TORSION_QUALITY range: red, yellow, green, not rotatable>  (5) 
green

>  <BIOSOLVEIT.TPSA>  (5) 
66.36

$$$$
3E37_ED5_1
     RDKit          3D

 43 46  0  0  0  0  0  0  0  0999 V2000
   18.9880  -71.5067    7.2517 C   0  0  0  0  0  0  0  0  0  0  0  0
   19.9191  -72.6827    7.0056 C   0  0  0  0  0  0  0  0  0  0  0  0
   21.2865  -72.4866    7.1697 C   0  0  0  0  0  0  0  0  0  0  0  0
   22.1593  -73.5469    6.9503 C   0  0  0  0  0  0  0  0  0  0  0  0
   21.6622  -74.7893    6.5705 C   0  0  0  0  0  0  0  0  0  0  0  0
   20.2950  -74.9872    6.4058 C   0  0  0  0  0  0  0  0  0  0  0  0
   19.4221  -73.9260    6.6250 C   0  0  0  0  0  0  0  0  0  0  0  0
   17.6778  -74.1976    6.4097 S   0  0  0  0  0  0  0  0  0  0  0  0
   17.4446  -75.6800    6.3162 O   0  0  0  0  0  0  0  0  0  0  0  0
   16.9239  -73.7121    7.6163 O   0  0  0  0  0  0  0  0  0  0  0  0
   17.0378  -73.4605    4.9524 N   0  0  0  0  0  0  0  0  0  0  0  0
   16.2774  -72.2132    5.1529 C   0  0  0  0  0  0  0  0  0  0  0  0
   15.1354  -72.1143    4.1337 C   0  0  0  0  0  0  0  0  0  0  0  0
   13.9082  -71.6111    4.7699 N   0  0  0  0  0  0  0  0  0  0  0  0
   13.1022  -72.5417    5.5790 C   0  0  0  0  0  0  0  0  0  0  0  0
   13.4626  -73.9877    5.2748 C   0  0  0  0  0  0  0  0  0  0  0  0
   14.0318  -74.8689    6.1466 C   0  0  0  0  0  0  0  0  0  0  0  0
   14.1833  -76.0473    5.4778 N   0  0  0  0  0  0  0  0  0  0  0  0
   13.7287  -75.8968    4.2521 C   0  0  0  0  0  0  0  0  0  0  0  0
   13.2658  -74.6279    4.0920 N   0  0  0  0  0  0  0  0  0  0  0  0
   12.6750  -74.0541    2.8738 C   0  0  0  0  0  0  0  0  0  0  0  0
   13.5273  -70.2184    4.6410 C   0  0  0  0  0  0  0  0  0  0  0  0
   13.9460  -69.4964    3.5280 C   0  0  0  0  0  0  0  0  0  0  0  0
   13.5881  -68.1592    3.3919 C   0  0  0  0  0  0  0  0  0  0  0  0
   12.8110  -67.5612    4.3776 C   0  0  0  0  0  0  0  0  0  0  0  0
   12.4117  -66.1010    4.2404 C   0  0  0  0  0  0  0  0  0  0  0  0
   12.1078  -64.9893    4.1357 N   0  0  0  0  0  0  0  0  0  0  0  0
   12.3895  -68.2792    5.4922 C   0  0  0  0  0  0  0  0  0  0  0  0
   12.7499  -69.6163    5.6250 C   0  0  0  0  0  0  0  0  0  0  0  0
   17.8973  -73.6158    3.7503 C   0  0  0  0  0  0  0  0  0  0  0  0
   18.8909  -72.4598    3.4278 C   0  0  0  0  0  0  0  0  0  0  0  0
   18.5025  -71.7478    2.1396 C   0  0  0  0  0  0  0  0  0  0  0  0
   19.5984  -70.7243    1.8965 C   0  0  0  0  0  0  0  0  0  0  0  0
   20.8365  -71.4509    1.5790 N   0  0  0  0  0  0  0  0  0  0  0  0
   21.8639  -70.8345    0.8542 C   0  0  0  0  0  0  0  0  0  0  0  0
   21.6771  -69.6966    0.3435 O   0  0  0  0  0  0  0  0  0  0  0  0
   23.0956  -71.4928    0.7047 O   0  0  0  0  0  0  0  0  0  0  0  0
   24.2892  -70.9461    0.1247 C   0  0  0  0  0  0  0  0  0  0  0  0
   24.6792  -69.7194    0.9633 C   0  0  0  0  0  0  0  0  0  0  0  0
   24.0304  -70.4951   -1.3256 C   0  0  0  0  0  0  0  0  0  0  0  0
   25.4379  -71.9713    0.1788 C   0  0  0  0  0  0  0  0  0  0  0  0
   20.9853  -72.8414    2.0384 C   0  0  0  0  0  0  0  0  0  0  0  0
   20.3335  -72.9442    3.4124 C   0  0  0  0  0  0  0  0  0  0  0  0
  1  2  1  0
  2  3  2  0
  3  4  1  0
  4  5  2  0
  5  6  1  0
  6  7  2  0
  7  8  1  0
  8  9  2  0
  8 10  2  0
  8 11  1  0
 11 12  1  0
 12 13  1  0
 13 14  1  0
 14 15  1  0
 15 16  1  0
 16 17  2  0
 17 18  1  0
 18 19  2  0
 19 20  1  0
 20 21  1  0
 14 22  1  0
 22 23  2  0
 23 24  1  0
 24 25  2  0
 25 26  1  0
 26 27  3  0
 25 28  1  0
 28 29  2  0
 11 30  1  0
 30 31  1  0
 31 32  1  0
 32 33  1  0
 33 34  1  0
 34 35  1  0
 35 36  2  0
 35 37  1  0
 37 38  1  0
 38 39  1  0
 38 40  1  0
 38 41  1  0
 34 42  1  0
 42 43  1  0
  7  2  1  0
 20 16  1  0
 29 22  1  0
 43 31  1  0
M  END
>  <BIOSOLVEIT.HYDE_ESTIMATED_AFFINITY_LOWER_BOUNDARY [nM]>  (6) 
56.794063

>  <BIOSOLVEIT.HYDE_ESTIMATED_AFFINITY_UPPER_BOUNDARY [nM]>  (6) 
5642.825903

>  <BIOSOLVEIT.HYDE_LIGAND_EFFICIENCY range: ++, +, 0, -, -->  (6) 
--

>  <BIOSOLVEIT.HYDE_LIGAND_LIPOPHILIC_EFFICIENCY range: ++, +, 0, -, -->  (6) 
--

>  <BIOSOLVEIT.INTER_CLASH range: red, yellow, green>  (6) 
green

>  <BIOSOLVEIT.INTRA_CLASH range: red, yellow, green>  (6) 
green

>  <BIOSOLVEIT.LOGP>  (6) 
5.5954

>  <BIOSOLVEIT.MOLECULAR WEIGHT>  (6) 
606.787

>  <BIOSOLVEIT.MOLECULE_CHECKSUM>  (6) 
LTM1LjY1ODU7MC44MjkyNjg=

>  <BIOSOLVEIT.TORSION_QUALITY range: red, yellow, green, not rotatable>  (6) 
red

>  <BIOSOLVEIT.TPSA>  (6) 
111.77

$$$$
2IEJ_S48_2
     RDKit          3D

 38 42  0  0  0  0  0  0  0  0999 V2000
   11.2690  -67.1601    8.8658 C   0  0  0  0  0  0  0  0  0  0  0  0
   11.5238  -68.0944    7.8247 O   0  0  0  0  0  0  0  0  0  0  0  0
   11.9656  -67.7061    6.5577 C   0  0  0  0  0  0  0  0  0  0  0  0
   12.2564  -66.4993    6.3302 O   0  0  0  0  0  0  0  0  0  0  0  0
   12.0239  -68.7002    5.4306 C   0  0  0  0  0  0  0  0  0  0  0  0
   13.3790  -68.9438    4.8867 N   0  0  0  0  0  0  0  0  0  0  0  0
   13.8976  -70.3299    4.7346 C   0  0  0  0  0  0  0  0  0  0  0  0
   15.4001  -70.3359    4.9811 C   0  0  0  0  0  0  0  0  0  0  0  0
   16.0047  -71.6937    4.6605 C   0  0  0  0  0  0  0  0  0  0  0  0
   17.2520  -71.9583    5.1901 C   0  0  0  0  0  0  0  0  0  0  0  0
   17.8601  -73.1768    4.9076 C   0  0  0  0  0  0  0  0  0  0  0  0
   19.1651  -73.4743    5.4626 C   0  0  0  0  0  0  0  0  0  0  0  0
   19.5065  -74.7940    5.7377 C   0  0  0  0  0  0  0  0  0  0  0  0
   20.7605  -75.0728    6.2708 C   0  0  0  0  0  0  0  0  0  0  0  0
   21.6619  -74.0452    6.5253 C   0  0  0  0  0  0  0  0  0  0  0  0
   21.3115  -72.7278    6.2472 C   0  0  0  0  0  0  0  0  0  0  0  0
   20.0597  -72.4390    5.7140 C   0  0  0  0  0  0  0  0  0  0  0  0
   17.2199  -74.1065    4.0966 C   0  0  0  0  0  0  0  0  0  0  0  0
   15.9609  -73.7936    3.5897 C   0  0  0  0  0  0  0  0  0  0  0  0
   15.3094  -72.5911    3.8553 C   0  0  0  0  0  0  0  0  0  0  0  0
   14.0245  -72.3002    3.3804 N   0  0  0  0  0  0  0  0  0  0  0  0
   13.0646  -73.3368    2.9714 C   0  0  0  0  0  0  0  0  0  0  0  0
   12.8708  -74.3551    4.0620 C   0  0  0  0  0  0  0  0  0  0  0  0
   13.1377  -75.6892    3.9651 C   0  0  0  0  0  0  0  0  0  0  0  0
   12.8264  -76.2450    5.1706 N   0  0  0  0  0  0  0  0  0  0  0  0
   12.3881  -75.2966    5.9704 C   0  0  0  0  0  0  0  0  0  0  0  0
   12.4082  -74.1047    5.3154 N   0  0  0  0  0  0  0  0  0  0  0  0
   12.0003  -72.7982    5.8531 C   0  0  0  0  0  0  0  0  0  0  0  0
   13.6139  -70.8972    3.3494 C   0  0  0  0  0  0  0  0  0  0  0  0
   13.8474  -67.8734    3.5830 S   0  0  0  0  0  0  0  0  0  0  0  0
   15.2565  -68.1548    3.1406 O   0  0  0  0  0  0  0  0  0  0  0  0
   13.7378  -66.4407    4.0244 O   0  0  0  0  0  0  0  0  0  0  0  0
   12.7694  -68.1341    2.2268 C   0  0  0  0  0  0  0  0  0  0  0  0
   13.0351  -67.7933    0.9358 C   0  0  0  0  0  0  0  0  0  0  0  0
   11.9395  -68.1715    0.2259 N   0  0  0  0  0  0  0  0  0  0  0  0
   11.7549  -68.0109   -1.2234 C   0  0  0  0  0  0  0  0  0  0  0  0
   11.0418  -68.7273    1.0848 C   0  0  0  0  0  0  0  0  0  0  0  0
   11.5359  -68.7098    2.3007 N   0  0  0  0  0  0  0  0  0  0  0  0
  1  2  1  0
  2  3  1  0
  3  4  2  0
  3  5  1  0
  5  6  1  0
  6  7  1  0
  7  8  1  0
  8  9  1  0
  9 10  2  0
 10 11  1  0
 11 12  1  0
 12 13  2  0
 13 14  1  0
 14 15  2  0
 15 16  1  0
 16 17  2  0
 11 18  2  0
 18 19  1  0
 19 20  2  0
 20 21  1  0
 21 22  1  0
 22 23  1  0
 23 24  2  0
 24 25  1  0
 25 26  2  0
 26 27  1  0
 27 28  1  0
 21 29  1  0
  6 30  1  0
 30 31  2  0
 30 32  2  0
 30 33  1  0
 33 34  2  0
 34 35  1  0
 35 36  1  0
 35 37  1  0
 37 38  2  0
 29  7  1  0
 38 33  1  0
 20  9  1  0
 27 23  1  0
 17 12  1  0
M  END
>  <BIOSOLVEIT.HYDE_ESTIMATED_AFFINITY_LOWER_BOUNDARY [nM]>  (7) 
137274.444888

>  <BIOSOLVEIT.HYDE_ESTIMATED_AFFINITY_UPPER_BOUNDARY [nM]>  (7) 
13639027.730375

>  <BIOSOLVEIT.HYDE_LIGAND_EFFICIENCY range: ++, +, 0, -, -->  (7) 
--

>  <BIOSOLVEIT.HYDE_LIGAND_LIPOPHILIC_EFFICIENCY range: ++, +, 0, -, -->  (7) 
--

>  <BIOSOLVEIT.INTER_CLASH range: red, yellow, green>  (7) 
green

>  <BIOSOLVEIT.INTRA_CLASH range: red, yellow, green>  (7) 
yellow

>  <BIOSOLVEIT.LOGP>  (7) 
3.2664

>  <BIOSOLVEIT.MOLECULAR WEIGHT>  (7) 
534.637

>  <BIOSOLVEIT.MOLECULE_CHECKSUM>  (7) 
LTE2LjM0Njc7MC40MzAxNzY=

>  <BIOSOLVEIT.TORSION_QUALITY range: red, yellow, green, not rotatable>  (7) 
yellow

>  <BIOSOLVEIT.TPSA>  (7) 
102.56

$$$$
