1JCQ_739_1
     RDKit          3D

 34 34  0  0  0  0  0  0  0  0999 V2000
   22.1263  138.5215    5.8159 C   0  0  0  0  0  0  0  0  0  0  0  0
   21.8297  137.0264    5.6729 C   0  0  0  0  0  0  0  0  0  0  0  0
   20.8247  136.6860    4.5361 C   0  0  0  0  0  0  0  0  0  0  0  0
   21.3456  137.2193    3.1831 C   0  0  0  0  0  0  0  0  0  0  0  0
   20.5575  135.1370    4.4594 C   0  0  0  0  0  0  0  0  0  0  0  0
   19.1805  134.7691    3.8429 C   0  0  0  0  0  0  0  0  0  0  0  0
   19.0892  133.3776    3.6074 O   0  0  0  0  0  0  0  0  0  0  0  0
   18.6146  133.1164    2.2976 C   0  0  0  0  0  0  0  0  0  0  0  0
   18.9046  134.3328    1.4070 C   0  0  0  0  0  0  0  0  0  0  0  0
   17.6364  134.8897    0.8136 C   0  0  0  0  0  0  0  0  0  0  0  0
   16.9965  135.9527    1.4419 C   0  0  0  0  0  0  0  0  0  0  0  0
   15.8260  136.4617    0.8893 C   0  0  0  0  0  0  0  0  0  0  0  0
   15.3020  135.9151   -0.2767 C   0  0  0  0  0  0  0  0  0  0  0  0
   15.9487  134.8515   -0.8982 C   0  0  0  0  0  0  0  0  0  0  0  0
   17.1198  134.3356   -0.3532 C   0  0  0  0  0  0  0  0  0  0  0  0
   19.2971  131.9027    1.7187 C   0  0  0  0  0  0  0  0  0  0  0  0
   20.2959  131.4168    2.3152 O   0  0  0  0  0  0  0  0  0  0  0  0
   18.8002  131.2926    0.5165 N   0  0  0  0  0  0  0  0  0  0  0  0
   19.4030  130.0974   -0.0822 C   0  0  0  0  0  0  0  0  0  0  0  0
   19.8907  130.3947   -1.5098 C   0  0  0  0  0  0  0  0  0  0  0  0
   21.3451  129.9565   -1.7175 C   0  0  0  0  0  0  0  0  0  0  0  0
   21.8513  130.1736   -3.4182 S   0  0  0  0  0  0  0  0  0  0  0  0
   23.5543  129.6939   -3.6088 C   0  0  0  0  0  0  0  0  0  0  0  0
   21.7043  131.6213   -3.7927 O   0  0  0  0  0  0  0  0  0  0  0  0
   20.9970  129.3384   -4.3299 O   0  0  0  0  0  0  0  0  0  0  0  0
   18.3907  128.9887   -0.1032 C   0  0  0  0  0  0  0  0  0  0  0  0
   17.1820  129.2392   -0.3521 O   0  0  0  0  0  0  0  0  0  0  0  0
   18.7785  127.6807    0.1628 O   0  0  0  0  0  0  0  0  0  0  0  0
   21.6591  134.3621    3.8246 N   0  0  0  0  0  0  0  0  0  0  0  0
   22.9619  134.4444    4.5180 C   0  0  0  0  0  0  0  0  0  0  0  0
   23.2474  133.1965    5.3934 C   0  0  0  0  0  0  0  0  0  0  0  0
   22.1702  133.0294    6.3789 N   0  0  0  0  0  0  0  0  0  0  0  0
   23.3958  131.9067    4.5501 C   0  0  0  0  0  0  0  0  0  0  0  0
   24.5044  132.1384    3.1706 S   0  0  0  0  0  0  0  0  0  0  0  0
  1  2  1  0
  2  3  1  0
  3  4  1  0
  3  5  1  0
  5  6  1  0
  6  7  1  0
  7  8  1  0
  8  9  1  0
  9 10  1  0
 10 11  2  0
 11 12  1  0
 12 13  2  0
 13 14  1  0
 14 15  2  0
  8 16  1  0
 16 17  2  0
 16 18  1  0
 18 19  1  0
 19 20  1  0
 20 21  1  0
 21 22  1  0
 22 23  1  0
 22 24  2  0
 22 25  2  0
 19 26  1  0
 26 27  2  0
 26 28  1  0
  5 29  1  0
 29 30  1  0
 30 31  1  0
 31 32  1  0
 31 33  1  0
 33 34  1  0
 15 10  1  0
M  CHG  3  28  -1  29   1  32   1
M  END
>  <BIOSOLVEIT.HYDE_ESTIMATED_AFFINITY_LOWER_BOUNDARY [nM]>  (1) 
17372.968120

>  <BIOSOLVEIT.HYDE_ESTIMATED_AFFINITY_UPPER_BOUNDARY [nM]>  (1) 
1726107.099815

>  <BIOSOLVEIT.HYDE_LIGAND_EFFICIENCY range: ++, +, 0, -, -->  (1) 
--

>  <BIOSOLVEIT.HYDE_LIGAND_LIPOPHILIC_EFFICIENCY range: ++, +, 0, -, -->  (1) 
0

>  <BIOSOLVEIT.INTER_CLASH range: red, yellow, green>  (1) 
green

>  <BIOSOLVEIT.INTRA_CLASH range: red, yellow, green>  (1) 
green

>  <BIOSOLVEIT.LOGP>  (1) 
-1.1671

>  <BIOSOLVEIT.MOLECULAR WEIGHT>  (1) 
518.714

>  <BIOSOLVEIT.MOLECULE_CHECKSUM>  (1) 
LTIxLjQ3MDg7MC42MzE0OTU=

>  <BIOSOLVEIT.TORSION_QUALITY range: red, yellow, green, not rotatable>  (1) 
red

>  <BIOSOLVEIT.TPSA>  (1) 
156.85

$$$$
1SA4_JAN_1
     RDKit          3D

 34 38  0  0  0  0  0  0  0  0999 V2000
   14.6763  129.5971   -3.7710 C   0  0  0  0  0  0  0  0  0  0  0  0
   13.8165  130.6302   -3.1746 N   0  0  0  0  0  0  0  0  0  0  0  0
   12.4990  130.4746   -2.8565 C   0  0  0  0  0  0  0  0  0  0  0  0
   12.0730  131.6087   -2.3453 N   0  0  0  0  0  0  0  0  0  0  0  0
   13.1067  132.5020   -2.3294 C   0  0  0  0  0  0  0  0  0  0  0  0
   14.2101  131.8927   -2.8513 C   0  0  0  0  0  0  0  0  0  0  0  0
   15.6099  132.5090   -3.0290 C   0  0  0  0  0  0  0  0  0  0  0  0
   16.6204  131.4229   -3.0389 N   0  0  0  0  0  0  0  0  0  0  0  0
   15.9589  133.4592   -1.8554 C   0  0  0  0  0  0  0  0  0  0  0  0
   15.2156  134.6220   -1.6767 C   0  0  0  0  0  0  0  0  0  0  0  0
   15.5155  135.4848   -0.6277 C   0  0  0  0  0  0  0  0  0  0  0  0
   16.5622  135.1692    0.2315 C   0  0  0  0  0  0  0  0  0  0  0  0
   16.9588  136.2631    1.5786 Cl  0  0  0  0  0  0  0  0  0  0  0  0
   17.3059  134.0075    0.0545 C   0  0  0  0  0  0  0  0  0  0  0  0
   17.0052  133.1453   -0.9947 C   0  0  0  0  0  0  0  0  0  0  0  0
   15.6499  133.2137   -4.3691 C   0  0  0  0  0  0  0  0  0  0  0  0
   14.7248  132.8792   -5.3484 C   0  0  0  0  0  0  0  0  0  0  0  0
   14.8022  133.5537   -6.5595 C   0  0  0  0  0  0  0  0  0  0  0  0
   15.7698  134.5279   -6.7847 C   0  0  0  0  0  0  0  0  0  0  0  0
   16.6787  134.8360   -5.7822 C   0  0  0  0  0  0  0  0  0  0  0  0
   16.6277  134.1784   -4.5585 C   0  0  0  0  0  0  0  0  0  0  0  0
   17.6932  135.8488   -6.0208 C   0  0  0  0  0  0  0  0  0  0  0  0
   18.6689  136.1985   -5.0049 C   0  0  0  0  0  0  0  0  0  0  0  0
   18.6092  137.4514   -4.4039 C   0  0  0  0  0  0  0  0  0  0  0  0
   19.5485  137.7786   -3.4310 C   0  0  0  0  0  0  0  0  0  0  0  0
   20.5362  136.8731   -3.0580 C   0  0  0  0  0  0  0  0  0  0  0  0
   20.5765  135.6258   -3.6724 C   0  0  0  0  0  0  0  0  0  0  0  0
   21.8334  134.4534   -3.2100 Cl  0  0  0  0  0  0  0  0  0  0  0  0
   19.6482  135.2776   -4.6481 C   0  0  0  0  0  0  0  0  0  0  0  0
   17.7838  136.4989   -7.1669 C   0  0  0  0  0  0  0  0  0  0  0  0
   16.8400  136.1932   -8.2247 C   0  0  0  0  0  0  0  0  0  0  0  0
   16.9231  136.7944   -9.2837 O   0  0  0  0  0  0  0  0  0  0  0  0
   15.8603  135.2161   -8.0013 N   0  0  0  0  0  0  0  0  0  0  0  0
   14.9296  134.9412   -9.1089 C   0  0  0  0  0  0  0  0  0  0  0  0
  1  2  1  0
  2  3  1  0
  3  4  2  0
  4  5  1  0
  5  6  2  0
  6  7  1  0
  7  8  1  0
  7  9  1  0
  9 10  2  0
 10 11  1  0
 11 12  2  0
 12 13  1  0
 12 14  1  0
 14 15  2  0
  7 16  1  0
 16 17  2  0
 17 18  1  0
 18 19  2  0
 19 20  1  0
 20 21  2  0
 20 22  1  0
 22 23  1  0
 23 24  2  0
 24 25  1  0
 25 26  2  0
 26 27  1  0
 27 28  1  0
 27 29  2  0
 22 30  2  0
 30 31  1  0
 31 32  2  0
 31 33  1  0
 33 34  1  0
  6  2  1  0
 15  9  1  0
 21 16  1  0
 29 23  1  0
 33 19  1  0
M  END
>  <BIOSOLVEIT.HYDE_ESTIMATED_AFFINITY_LOWER_BOUNDARY [nM]>  (2) 
555725.762260

>  <BIOSOLVEIT.HYDE_ESTIMATED_AFFINITY_UPPER_BOUNDARY [nM]>  (2) 
55214640.191224

>  <BIOSOLVEIT.HYDE_LIGAND_EFFICIENCY range: ++, +, 0, -, -->  (2) 
--

>  <BIOSOLVEIT.HYDE_LIGAND_LIPOPHILIC_EFFICIENCY range: ++, +, 0, -, -->  (2) 
--

>  <BIOSOLVEIT.INTER_CLASH range: red, yellow, green>  (2) 
green

>  <BIOSOLVEIT.INTRA_CLASH range: red, yellow, green>  (2) 
yellow

>  <BIOSOLVEIT.LOGP>  (2) 
5.3856

>  <BIOSOLVEIT.MOLECULAR WEIGHT>  (2) 
489.404

>  <BIOSOLVEIT.MOLECULE_CHECKSUM>  (2) 
LTEyLjg4MDQ7MC4zNzg4MzQ=

>  <BIOSOLVEIT.TORSION_QUALITY range: red, yellow, green, not rotatable>  (2) 
green

>  <BIOSOLVEIT.TPSA>  (2) 
64.15

$$$$
1MZC_BNE_2
     RDKit          3D

 35 38  0  0  0  0  0  0  0  0999 V2000
   15.0050  135.1074   -2.4221 C   0  0  0  0  0  0  0  0  0  0  0  0
   15.8314  134.4002   -1.3364 C   0  0  0  0  0  0  0  0  0  0  0  0
   17.3054  134.1835   -1.6402 C   0  0  0  0  0  0  0  0  0  0  0  0
   17.9375  133.6640   -0.3597 C   0  0  0  0  0  0  0  0  0  0  0  0
   18.4962  132.3903   -0.3278 C   0  0  0  0  0  0  0  0  0  0  0  0
   19.0694  131.9353    0.8553 C   0  0  0  0  0  0  0  0  0  0  0  0
   19.0890  132.7324    1.9950 C   0  0  0  0  0  0  0  0  0  0  0  0
   18.5247  134.0026    1.9412 C   0  0  0  0  0  0  0  0  0  0  0  0
   18.5399  134.8131    3.0866 O   0  0  0  0  0  0  0  0  0  0  0  0
   19.6514  135.3484    3.6348 C   0  0  0  0  0  0  0  0  0  0  0  0
   20.5978  134.4953    4.1927 C   0  0  0  0  0  0  0  0  0  0  0  0
   21.7454  135.0398    4.7596 C   0  0  0  0  0  0  0  0  0  0  0  0
   22.8035  134.1017    5.3825 C   0  0  0  0  0  0  0  0  0  0  0  0
   24.0071  134.9892    5.7850 C   0  0  0  0  0  0  0  0  0  0  0  0
   22.2917  133.4202    6.5876 N   0  0  0  0  0  0  0  0  0  0  0  0
   23.1953  133.0257    4.3560 C   0  0  0  0  0  0  0  0  0  0  0  0
   22.9631  131.6868    4.4748 C   0  0  0  0  0  0  0  0  0  0  0  0
   23.4633  131.0958    3.3526 N   0  0  0  0  0  0  0  0  0  0  0  0
   23.9793  132.0282    2.5806 C   0  0  0  0  0  0  0  0  0  0  0  0
   23.8243  133.2437    3.1709 N   0  0  0  0  0  0  0  0  0  0  0  0
   24.2603  134.5429    2.6375 C   0  0  0  0  0  0  0  0  0  0  0  0
   21.9541  136.4152    4.7741 C   0  0  0  0  0  0  0  0  0  0  0  0
   21.0008  137.2586    4.2132 C   0  0  0  0  0  0  0  0  0  0  0  0
   19.8494  136.7252    3.6432 C   0  0  0  0  0  0  0  0  0  0  0  0
   18.8076  137.6468    3.0302 C   0  0  0  0  0  0  0  0  0  0  0  0
   18.0139  138.3479    2.5636 N   0  0  0  0  0  0  0  0  0  0  0  0
   17.9466  134.4776    0.7687 C   0  0  0  0  0  0  0  0  0  0  0  0
   17.8349  135.5753   -2.0061 C   0  0  0  0  0  0  0  0  0  0  0  0
   19.3339  135.7679   -2.2623 C   0  0  0  0  0  0  0  0  0  0  0  0
   20.2011  134.5516   -2.6007 C   0  0  0  0  0  0  0  0  0  0  0  0
   19.7427  133.6271   -3.7308 C   0  0  0  0  0  0  0  0  0  0  0  0
   18.4893  132.8436   -3.6085 N   0  0  0  0  0  0  0  0  0  0  0  0
   18.3374  131.7024   -4.5239 C   0  0  0  0  0  0  0  0  0  0  0  0
   17.4229  133.0720   -2.6970 C   0  0  0  0  0  0  0  0  0  0  0  0
   16.4870  132.2876   -2.7634 O   0  0  0  0  0  0  0  0  0  0  0  0
  1  2  1  0
  2  3  1  0
  3  4  1  0
  4  5  2  0
  5  6  1  0
  6  7  2  0
  7  8  1  0
  8  9  1  0
  9 10  1  0
 10 11  2  0
 11 12  1  0
 12 13  1  0
 13 14  1  0
 13 15  1  0
 13 16  1  0
 16 17  2  0
 17 18  1  0
 18 19  2  0
 19 20  1  0
 20 21  1  0
 12 22  2  0
 22 23  1  0
 23 24  2  0
 24 25  1  0
 25 26  3  0
  8 27  2  0
  3 28  1  0
 28 29  1  0
 29 30  1  0
 30 31  1  0
 31 32  1  0
 32 33  1  0
 32 34  1  0
 34 35  2  0
 34  3  1  0
 27  4  1  0
 24 10  1  0
 20 16  1  0
M  CHG  1  15   1
M  END
>  <BIOSOLVEIT.HYDE_ESTIMATED_AFFINITY_LOWER_BOUNDARY [nM]>  (3) 
18039916.558715

>  <BIOSOLVEIT.HYDE_ESTIMATED_AFFINITY_UPPER_BOUNDARY [nM]>  (3) 
1792372370.536266

>  <BIOSOLVEIT.HYDE_LIGAND_EFFICIENCY range: ++, +, 0, -, -->  (3) 
--

>  <BIOSOLVEIT.HYDE_LIGAND_LIPOPHILIC_EFFICIENCY range: ++, +, 0, -, -->  (3) 
--

>  <BIOSOLVEIT.INTER_CLASH range: red, yellow, green>  (3) 
green

>  <BIOSOLVEIT.INTRA_CLASH range: red, yellow, green>  (3) 
green

>  <BIOSOLVEIT.LOGP>  (3) 
3.87958

>  <BIOSOLVEIT.MOLECULAR WEIGHT>  (3) 
472.61

>  <BIOSOLVEIT.MOLECULE_CHECKSUM>  (3) 
LTQuMjUzNDM7MC4xMjE1Mjc=

>  <BIOSOLVEIT.TORSION_QUALITY range: red, yellow, green, not rotatable>  (3) 
green

>  <BIOSOLVEIT.TPSA>  (3) 
98.79

$$$$
1LD7_U66_3
     RDKit          3D

 34 39  0  0  0  0  0  0  0  0999 V2000
   13.7719  132.8887   -3.0987 N   0  0  0  0  0  0  0  0  0  0  0  0
   13.8688  133.9164   -3.6220 C   0  0  0  0  0  0  0  0  0  0  0  0
   13.9925  135.2277   -4.2892 C   0  0  0  0  0  0  0  0  0  0  0  0
   14.3467  135.0449   -5.7770 C   0  0  0  0  0  0  0  0  0  0  0  0
   15.8270  134.9106   -6.0516 C   0  0  0  0  0  0  0  0  0  0  0  0
   16.7803  135.2899   -5.1715 C   0  0  0  0  0  0  0  0  0  0  0  0
   16.4303  135.5124   -3.7159 C   0  0  0  0  0  0  0  0  0  0  0  0
   15.0242  136.1315   -3.5839 C   0  0  0  0  0  0  0  0  0  0  0  0
   14.6369  136.2983   -2.2156 O   0  0  0  0  0  0  0  0  0  0  0  0
   14.9059  137.4327   -1.4345 C   0  0  0  0  0  0  0  0  0  0  0  0
   14.0369  137.7409   -0.3817 C   0  0  0  0  0  0  0  0  0  0  0  0
   14.2330  138.8901    0.3904 C   0  0  0  0  0  0  0  0  0  0  0  0
   15.3465  139.7120    0.1616 C   0  0  0  0  0  0  0  0  0  0  0  0
   15.5552  140.8668    0.9298 C   0  0  0  0  0  0  0  0  0  0  0  0
   16.6915  141.6523    0.7204 C   0  0  0  0  0  0  0  0  0  0  0  0
   17.6485  141.2697   -0.2229 C   0  0  0  0  0  0  0  0  0  0  0  0
   17.4621  140.1133   -0.9944 C   0  0  0  0  0  0  0  0  0  0  0  0
   16.2790  139.3612   -0.8432 C   0  0  0  0  0  0  0  0  0  0  0  0
   16.0123  138.2624   -1.6743 C   0  0  0  0  0  0  0  0  0  0  0  0
   18.5499  139.6020   -1.7802 N   0  0  0  0  0  0  0  0  0  0  0  0
   19.3967  138.5177   -1.3020 C   0  0  0  0  0  0  0  0  0  0  0  0
   20.5984  138.4502   -2.2610 C   0  0  0  0  0  0  0  0  0  0  0  0
   20.5948  139.7871   -3.0380 C   0  0  0  0  0  0  0  0  0  0  0  0
   20.9599  139.7193   -4.4758 N   0  0  0  0  0  0  0  0  0  0  0  0
   20.4319  138.6107   -5.2992 C   0  0  0  0  0  0  0  0  0  0  0  0
   18.8947  138.5407   -5.3525 C   0  0  0  0  0  0  0  0  0  0  0  0
   18.4649  137.7859   -6.5822 C   0  0  0  0  0  0  0  0  0  0  0  0
   18.4089  138.3300   -7.8485 C   0  0  0  0  0  0  0  0  0  0  0  0
   18.2054  137.3510   -8.7510 N   0  0  0  0  0  0  0  0  0  0  0  0
   18.1490  136.2226   -8.0143 C   0  0  0  0  0  0  0  0  0  0  0  0
   18.3105  136.4492   -6.6933 N   0  0  0  0  0  0  0  0  0  0  0  0
   18.2158  135.4385   -5.6339 C   0  0  0  0  0  0  0  0  0  0  0  0
   19.2389  140.3305   -2.7775 C   0  0  0  0  0  0  0  0  0  0  0  0
   18.7811  141.3816   -3.3010 O   0  0  0  0  0  0  0  0  0  0  0  0
  1  2  3  0
  2  3  1  0
  3  4  1  0
  4  5  1  0
  5  6  2  0
  6  7  1  0
  7  8  1  0
  8  9  1  0
  9 10  1  0
 10 11  2  0
 11 12  1  0
 12 13  2  0
 13 14  1  0
 14 15  2  0
 15 16  1  0
 16 17  2  0
 17 18  1  0
 18 19  2  0
 17 20  1  0
 20 21  1  0
 21 22  1  0
 22 23  1  0
 23 24  1  0
 24 25  1  0
 25 26  1  0
 26 27  1  0
 27 28  2  0
 28 29  1  0
 29 30  2  0
 30 31  1  0
 31 32  1  0
 23 33  1  0
 33 34  2  0
  8  3  1  0
 19 10  1  0
 33 20  1  0
 32  6  1  0
 18 13  1  0
 31 27  1  0
M  CHG  1  24   1
M  END
>  <BIOSOLVEIT.HYDE_ESTIMATED_AFFINITY_LOWER_BOUNDARY [nM]>  (4) 
53456436.796662

>  <BIOSOLVEIT.HYDE_ESTIMATED_AFFINITY_UPPER_BOUNDARY [nM]>  (4) 
5311213055.215988

>  <BIOSOLVEIT.HYDE_LIGAND_EFFICIENCY range: ++, +, 0, -, -->  (4) 
--

>  <BIOSOLVEIT.HYDE_LIGAND_LIPOPHILIC_EFFICIENCY range: ++, +, 0, -, -->  (4) 
--

>  <BIOSOLVEIT.INTER_CLASH range: red, yellow, green>  (4) 
green

>  <BIOSOLVEIT.INTRA_CLASH range: red, yellow, green>  (4) 
green

>  <BIOSOLVEIT.LOGP>  (4) 
2.56868

>  <BIOSOLVEIT.MOLECULAR WEIGHT>  (4) 
454.551

>  <BIOSOLVEIT.MOLECULE_CHECKSUM>  (4) 
LTEuNTYwNTk7MC4wNDU4OTk2

>  <BIOSOLVEIT.TORSION_QUALITY range: red, yellow, green, not rotatable>  (4) 
not rotatable

>  <BIOSOLVEIT.TPSA>  (4) 
87.76

$$$$
1S63_778_1
     RDKit          3D

 29 32  0  0  0  0  0  0  0  0999 V2000
   21.9619  139.0694   -1.1738 N   0  0  0  0  0  0  0  0  0  0  0  0
   21.2962  138.4918   -1.9235 C   0  0  0  0  0  0  0  0  0  0  0  0
   20.4216  137.7326   -2.9079 C   0  0  0  0  0  0  0  0  0  0  0  0
   19.0393  137.8770   -2.8444 C   0  0  0  0  0  0  0  0  0  0  0  0
   18.2265  137.1890   -3.7391 C   0  0  0  0  0  0  0  0  0  0  0  0
   18.8134  136.3609   -4.6903 C   0  0  0  0  0  0  0  0  0  0  0  0
   17.9448  135.6090   -5.6641 C   0  0  0  0  0  0  0  0  0  0  0  0
   17.6347  136.4393   -6.8374 N   0  0  0  0  0  0  0  0  0  0  0  0
   18.3231  136.4309   -8.0154 C   0  0  0  0  0  0  0  0  0  0  0  0
   17.7514  137.2995   -8.8202 N   0  0  0  0  0  0  0  0  0  0  0  0
   16.6945  137.8735   -8.1720 C   0  0  0  0  0  0  0  0  0  0  0  0
   16.6144  137.3366   -6.9202 C   0  0  0  0  0  0  0  0  0  0  0  0
   15.5972  137.6686   -5.8541 C   0  0  0  0  0  0  0  0  0  0  0  0
   14.3852  136.8481   -5.9684 N   0  0  0  0  0  0  0  0  0  0  0  0
   14.8202  135.5823   -6.5932 C   0  0  0  0  0  0  0  0  0  0  0  0
   14.3240  134.2934   -5.9404 C   0  0  0  0  0  0  0  0  0  0  0  0
   14.5355  134.3453   -4.4876 N   0  0  0  0  0  0  0  0  0  0  0  0
   14.9771  133.2018   -3.8106 C   0  0  0  0  0  0  0  0  0  0  0  0
   14.0786  132.1722   -3.5496 C   0  0  0  0  0  0  0  0  0  0  0  0
   14.5230  131.0378   -2.8781 C   0  0  0  0  0  0  0  0  0  0  0  0
   15.8472  130.9251   -2.4687 C   0  0  0  0  0  0  0  0  0  0  0  0
   16.7290  131.9664   -2.7404 C   0  0  0  0  0  0  0  0  0  0  0  0
   18.4280  131.8413   -2.2252 Cl  0  0  0  0  0  0  0  0  0  0  0  0
   16.3059  133.1095   -3.4104 C   0  0  0  0  0  0  0  0  0  0  0  0
   14.2839  135.5500   -3.8156 C   0  0  0  0  0  0  0  0  0  0  0  0
   14.4660  135.6297   -2.6087 O   0  0  0  0  0  0  0  0  0  0  0  0
   13.8040  136.7564   -4.6099 C   0  0  0  0  0  0  0  0  0  0  0  0
   20.1951  136.2138   -4.7563 C   0  0  0  0  0  0  0  0  0  0  0  0
   21.0056  136.9036   -3.8602 C   0  0  0  0  0  0  0  0  0  0  0  0
  1  2  3  0
  2  3  1  0
  3  4  2  0
  4  5  1  0
  5  6  2  0
  6  7  1  0
  7  8  1  0
  8  9  1  0
  9 10  2  0
 10 11  1  0
 11 12  2  0
 12 13  1  0
 13 14  1  0
 14 15  1  0
 15 16  1  0
 16 17  1  0
 17 18  1  0
 18 19  2  0
 19 20  1  0
 20 21  2  0
 21 22  1  0
 22 23  1  0
 22 24  2  0
 17 25  1  0
 25 26  2  0
 25 27  1  0
  6 28  1  0
 28 29  2  0
 29  3  1  0
 12  8  1  0
 27 14  1  0
 24 18  1  0
M  CHG  1  14   1
M  END
>  <BIOSOLVEIT.HYDE_ESTIMATED_AFFINITY_LOWER_BOUNDARY [nM]>  (5) 
373989.445662

>  <BIOSOLVEIT.HYDE_ESTIMATED_AFFINITY_UPPER_BOUNDARY [nM]>  (5) 
37158062.627161

>  <BIOSOLVEIT.HYDE_LIGAND_EFFICIENCY range: ++, +, 0, -, -->  (5) 
--

>  <BIOSOLVEIT.HYDE_LIGAND_LIPOPHILIC_EFFICIENCY range: ++, +, 0, -, -->  (5) 
--

>  <BIOSOLVEIT.INTER_CLASH range: red, yellow, green>  (5) 
green

>  <BIOSOLVEIT.INTRA_CLASH range: red, yellow, green>  (5) 
green

>  <BIOSOLVEIT.LOGP>  (5) 
1.88818

>  <BIOSOLVEIT.MOLECULAR WEIGHT>  (5) 
406.895

>  <BIOSOLVEIT.MOLECULE_CHECKSUM>  (5) 
LTEzLjg2MjI7MC40NzgwMDU=

>  <BIOSOLVEIT.TORSION_QUALITY range: red, yellow, green, not rotatable>  (5) 
green

>  <BIOSOLVEIT.TPSA>  (5) 
66.36

$$$$
3E37_ED5_1
     RDKit          3D

 43 46  0  0  0  0  0  0  0  0999 V2000
   19.4743  128.7651   -4.4758 C   0  0  0  0  0  0  0  0  0  0  0  0
   18.5803  129.1904   -3.3221 C   0  0  0  0  0  0  0  0  0  0  0  0
   17.8956  128.2036   -2.6202 C   0  0  0  0  0  0  0  0  0  0  0  0
   17.0714  128.5669   -1.5608 C   0  0  0  0  0  0  0  0  0  0  0  0
   16.9378  129.9068   -1.2118 C   0  0  0  0  0  0  0  0  0  0  0  0
   17.6216  130.8949   -1.9127 C   0  0  0  0  0  0  0  0  0  0  0  0
   18.4460  130.5311   -2.9730 C   0  0  0  0  0  0  0  0  0  0  0  0
   19.3146  131.8111   -3.8597 S   0  0  0  0  0  0  0  0  0  0  0  0
   20.7283  131.3461   -4.0791 O   0  0  0  0  0  0  0  0  0  0  0  0
   18.7079  132.0443   -5.2136 O   0  0  0  0  0  0  0  0  0  0  0  0
   19.2935  133.3311   -2.9744 N   0  0  0  0  0  0  0  0  0  0  0  0
   17.9246  133.8824   -2.9424 C   0  0  0  0  0  0  0  0  0  0  0  0
   17.6990  134.8603   -4.1016 C   0  0  0  0  0  0  0  0  0  0  0  0
   16.2749  134.9296   -4.4614 N   0  0  0  0  0  0  0  0  0  0  0  0
   15.7807  135.9832   -5.3548 C   0  0  0  0  0  0  0  0  0  0  0  0
   16.6824  136.1367   -6.5451 C   0  0  0  0  0  0  0  0  0  0  0  0
   16.7008  135.3266   -7.6423 C   0  0  0  0  0  0  0  0  0  0  0  0
   17.6578  135.8158   -8.4811 N   0  0  0  0  0  0  0  0  0  0  0  0
   18.2023  136.8767   -7.9248 C   0  0  0  0  0  0  0  0  0  0  0  0
   17.6145  137.1102   -6.7205 N   0  0  0  0  0  0  0  0  0  0  0  0
   17.9308  138.1984   -5.7834 C   0  0  0  0  0  0  0  0  0  0  0  0
   15.4291  133.8641   -4.1298 C   0  0  0  0  0  0  0  0  0  0  0  0
   15.3710  132.7530   -4.9649 C   0  0  0  0  0  0  0  0  0  0  0  0
   14.5348  131.6878   -4.6479 C   0  0  0  0  0  0  0  0  0  0  0  0
   13.7648  131.7508   -3.4917 C   0  0  0  0  0  0  0  0  0  0  0  0
   12.8966  130.6544   -3.1519 C   0  0  0  0  0  0  0  0  0  0  0  0
   12.1990  129.7730   -2.8780 N   0  0  0  0  0  0  0  0  0  0  0  0
   13.8198  132.8594   -2.6531 C   0  0  0  0  0  0  0  0  0  0  0  0
   14.6571  133.9230   -2.9740 C   0  0  0  0  0  0  0  0  0  0  0  0
   19.8440  133.1651   -1.6099 C   0  0  0  0  0  0  0  0  0  0  0  0
   19.0940  134.0607   -0.5963 C   0  0  0  0  0  0  0  0  0  0  0  0
   19.7965  135.3973   -0.4193 C   0  0  0  0  0  0  0  0  0  0  0  0
   18.9201  136.3239    0.4070 C   0  0  0  0  0  0  0  0  0  0  0  0
   17.9018  135.5678    1.1548 N   0  0  0  0  0  0  0  0  0  0  0  0
   16.6754  136.1906    1.3829 C   0  0  0  0  0  0  0  0  0  0  0  0
   16.3994  136.6464    2.5258 O   0  0  0  0  0  0  0  0  0  0  0  0
   15.7537  136.2967    0.3281 O   0  0  0  0  0  0  0  0  0  0  0  0
   15.2296  137.5099   -0.2302 C   0  0  0  0  0  0  0  0  0  0  0  0
   16.2308  138.6673   -0.0516 C   0  0  0  0  0  0  0  0  0  0  0  0
   13.9437  137.8441    0.5414 C   0  0  0  0  0  0  0  0  0  0  0  0
   14.8828  137.3154   -1.7182 C   0  0  0  0  0  0  0  0  0  0  0  0
   18.0886  134.2016    1.6678 C   0  0  0  0  0  0  0  0  0  0  0  0
   19.0292  133.4100    0.7757 C   0  0  0  0  0  0  0  0  0  0  0  0
  1  2  1  0
  2  3  2  0
  3  4  1  0
  4  5  2  0
  5  6  1  0
  6  7  2  0
  7  8  1  0
  8  9  2  0
  8 10  2  0
  8 11  1  0
 11 12  1  0
 12 13  1  0
 13 14  1  0
 14 15  1  0
 15 16  1  0
 16 17  2  0
 17 18  1  0
 18 19  2  0
 19 20  1  0
 20 21  1  0
 14 22  1  0
 22 23  2  0
 23 24  1  0
 24 25  2  0
 25 26  1  0
 26 27  3  0
 25 28  1  0
 28 29  2  0
 11 30  1  0
 30 31  1  0
 31 32  1  0
 32 33  1  0
 33 34  1  0
 34 35  1  0
 35 36  2  0
 35 37  1  0
 37 38  1  0
 38 39  1  0
 38 40  1  0
 38 41  1  0
 34 42  1  0
 42 43  1  0
  7  2  1  0
 20 16  1  0
 29 22  1  0
 43 31  1  0
M  END
>  <BIOSOLVEIT.HYDE_ESTIMATED_AFFINITY_LOWER_BOUNDARY [nM]>  (6) 
91665332.517506

>  <BIOSOLVEIT.HYDE_ESTIMATED_AFFINITY_UPPER_BOUNDARY [nM]>  (6) 
9107492753.952116

>  <BIOSOLVEIT.HYDE_LIGAND_EFFICIENCY range: ++, +, 0, -, -->  (6) 
--

>  <BIOSOLVEIT.HYDE_LIGAND_LIPOPHILIC_EFFICIENCY range: ++, +, 0, -, -->  (6) 
--

>  <BIOSOLVEIT.INTER_CLASH range: red, yellow, green>  (6) 
green

>  <BIOSOLVEIT.INTRA_CLASH range: red, yellow, green>  (6) 
green

>  <BIOSOLVEIT.LOGP>  (6) 
5.5954

>  <BIOSOLVEIT.MOLECULAR WEIGHT>  (6) 
606.787

>  <BIOSOLVEIT.MOLECULE_CHECKSUM>  (6) 
LTAuMjIzNzQzOzAuMDA1MjAzMzI=

>  <BIOSOLVEIT.TORSION_QUALITY range: red, yellow, green, not rotatable>  (6) 
red

>  <BIOSOLVEIT.TPSA>  (6) 
111.77

$$$$
2IEJ_S48_3
     RDKit          3D

 38 42  0  0  0  0  0  0  0  0999 V2000
   14.7350  138.1451  -10.8490 C   0  0  0  0  0  0  0  0  0  0  0  0
   15.3710  137.9665   -9.5895 O   0  0  0  0  0  0  0  0  0  0  0  0
   15.1116  138.7935   -8.4925 C   0  0  0  0  0  0  0  0  0  0  0  0
   14.2975  139.7519   -8.5890 O   0  0  0  0  0  0  0  0  0  0  0  0
   15.7680  138.5088   -7.1786 C   0  0  0  0  0  0  0  0  0  0  0  0
   15.9347  137.0512   -6.9853 N   0  0  0  0  0  0  0  0  0  0  0  0
   15.5830  136.5600   -5.6259 C   0  0  0  0  0  0  0  0  0  0  0  0
   16.7946  136.7558   -4.7291 C   0  0  0  0  0  0  0  0  0  0  0  0
   16.4038  136.1723   -3.3834 C   0  0  0  0  0  0  0  0  0  0  0  0
   16.6955  136.8640   -2.2135 C   0  0  0  0  0  0  0  0  0  0  0  0
   16.2879  136.3184   -0.9993 C   0  0  0  0  0  0  0  0  0  0  0  0
   16.5499  137.0532    0.2232 C   0  0  0  0  0  0  0  0  0  0  0  0
   15.7015  136.8920    1.3133 C   0  0  0  0  0  0  0  0  0  0  0  0
   15.9581  137.6001    2.4825 C   0  0  0  0  0  0  0  0  0  0  0  0
   17.0491  138.4582    2.5612 C   0  0  0  0  0  0  0  0  0  0  0  0
   17.8924  138.6134    1.4655 C   0  0  0  0  0  0  0  0  0  0  0  0
   17.6440  137.9097    0.2918 C   0  0  0  0  0  0  0  0  0  0  0  0
   15.6288  135.0949   -0.9465 C   0  0  0  0  0  0  0  0  0  0  0  0
   15.3727  134.4208   -2.1366 C   0  0  0  0  0  0  0  0  0  0  0  0
   15.7542  134.9419   -3.3682 C   0  0  0  0  0  0  0  0  0  0  0  0
   15.4955  134.2893   -4.5885 N   0  0  0  0  0  0  0  0  0  0  0  0
   15.5590  132.8264   -4.7244 C   0  0  0  0  0  0  0  0  0  0  0  0
   14.4569  132.1576   -3.9459 C   0  0  0  0  0  0  0  0  0  0  0  0
   13.2050  132.6596   -3.7426 C   0  0  0  0  0  0  0  0  0  0  0  0
   12.5266  131.7437   -2.9943 N   0  0  0  0  0  0  0  0  0  0  0  0
   13.3248  130.7267   -2.7490 C   0  0  0  0  0  0  0  0  0  0  0  0
   14.5337  130.9472   -3.3320 N   0  0  0  0  0  0  0  0  0  0  0  0
   15.7024  130.0554   -3.2987 C   0  0  0  0  0  0  0  0  0  0  0  0
   15.1248  135.1140   -5.7503 C   0  0  0  0  0  0  0  0  0  0  0  0
   17.5444  136.5349   -7.4614 S   0  0  0  0  0  0  0  0  0  0  0  0
   17.6377  136.3966   -8.9551 O   0  0  0  0  0  0  0  0  0  0  0  0
   17.8844  135.2110   -6.8343 O   0  0  0  0  0  0  0  0  0  0  0  0
   18.7276  137.7284   -6.9610 C   0  0  0  0  0  0  0  0  0  0  0  0
   18.4934  138.7502   -6.0926 C   0  0  0  0  0  0  0  0  0  0  0  0
   19.6712  139.4211   -5.9925 N   0  0  0  0  0  0  0  0  0  0  0  0
   19.9176  140.6095   -5.1635 C   0  0  0  0  0  0  0  0  0  0  0  0
   20.5862  138.8041   -6.7892 C   0  0  0  0  0  0  0  0  0  0  0  0
   20.0240  137.7760   -7.3805 N   0  0  0  0  0  0  0  0  0  0  0  0
  1  2  1  0
  2  3  1  0
  3  4  2  0
  3  5  1  0
  5  6  1  0
  6  7  1  0
  7  8  1  0
  8  9  1  0
  9 10  2  0
 10 11  1  0
 11 12  1  0
 12 13  2  0
 13 14  1  0
 14 15  2  0
 15 16  1  0
 16 17  2  0
 11 18  2  0
 18 19  1  0
 19 20  2  0
 20 21  1  0
 21 22  1  0
 22 23  1  0
 23 24  2  0
 24 25  1  0
 25 26  2  0
 26 27  1  0
 27 28  1  0
 21 29  1  0
  6 30  1  0
 30 31  2  0
 30 32  2  0
 30 33  1  0
 33 34  2  0
 34 35  1  0
 35 36  1  0
 35 37  1  0
 37 38  2  0
 29  7  1  0
 38 33  1  0
 20  9  1  0
 27 23  1  0
 17 12  1  0
M  END
>  <BIOSOLVEIT.HYDE_ESTIMATED_AFFINITY_LOWER_BOUNDARY [nM]>  (7) 
2660201392.029621

>  <BIOSOLVEIT.HYDE_ESTIMATED_AFFINITY_UPPER_BOUNDARY [nM]>  (7) 
264306736653.532990

>  <BIOSOLVEIT.HYDE_LIGAND_EFFICIENCY range: ++, +, 0, -, -->  (7) 
--

>  <BIOSOLVEIT.HYDE_LIGAND_LIPOPHILIC_EFFICIENCY range: ++, +, 0, -, -->  (7) 
--

>  <BIOSOLVEIT.INTER_CLASH range: red, yellow, green>  (7) 
green

>  <BIOSOLVEIT.INTRA_CLASH range: red, yellow, green>  (7) 
yellow

>  <BIOSOLVEIT.LOGP>  (7) 
3.2664

>  <BIOSOLVEIT.MOLECULAR WEIGHT>  (7) 
534.637

>  <BIOSOLVEIT.MOLECULE_CHECKSUM>  (7) 
OC4xMjU0Mjsw

>  <BIOSOLVEIT.TORSION_QUALITY range: red, yellow, green, not rotatable>  (7) 
yellow

>  <BIOSOLVEIT.TPSA>  (7) 
102.56

$$$$
