1JCQ_739_3
     RDKit          3D

 34 34  0  0  0  0  0  0  0  0999 V2000
   19.9443  127.8312   -3.5372 C   0  0  0  0  0  0  0  0  0  0  0  0
   20.5088  127.9011   -2.1117 C   0  0  0  0  0  0  0  0  0  0  0  0
   19.5603  128.5067   -1.0327 C   0  0  0  0  0  0  0  0  0  0  0  0
   18.0833  128.5566   -1.4774 C   0  0  0  0  0  0  0  0  0  0  0  0
   20.0810  129.8567   -0.4254 C   0  0  0  0  0  0  0  0  0  0  0  0
   20.5052  130.8694   -1.5179 C   0  0  0  0  0  0  0  0  0  0  0  0
   21.0574  132.0274   -0.9260 O   0  0  0  0  0  0  0  0  0  0  0  0
   22.4720  132.0169   -1.0271 C   0  0  0  0  0  0  0  0  0  0  0  0
   22.9905  133.4604   -0.9810 C   0  0  0  0  0  0  0  0  0  0  0  0
   24.4163  133.5424   -1.4617 C   0  0  0  0  0  0  0  0  0  0  0  0
   24.6993  134.2000   -2.6540 C   0  0  0  0  0  0  0  0  0  0  0  0
   26.0173  134.2717   -3.0923 C   0  0  0  0  0  0  0  0  0  0  0  0
   27.0394  133.6935   -2.3481 C   0  0  0  0  0  0  0  0  0  0  0  0
   26.7468  133.0372   -1.1567 C   0  0  0  0  0  0  0  0  0  0  0  0
   25.4317  132.9602   -0.7100 C   0  0  0  0  0  0  0  0  0  0  0  0
   23.0675  131.2435    0.1201 C   0  0  0  0  0  0  0  0  0  0  0  0
   23.1566  129.9873    0.0443 O   0  0  0  0  0  0  0  0  0  0  0  0
   23.4739  131.9308    1.3131 N   0  0  0  0  0  0  0  0  0  0  0  0
   24.0051  131.2391    2.4913 C   0  0  0  0  0  0  0  0  0  0  0  0
   24.2859  132.2456    3.6205 C   0  0  0  0  0  0  0  0  0  0  0  0
   24.3881  131.5556    4.9863 C   0  0  0  0  0  0  0  0  0  0  0  0
   25.9834  131.8412    5.7382 S   0  0  0  0  0  0  0  0  0  0  0  0
   25.8066  132.7609    7.2522 C   0  0  0  0  0  0  0  0  0  0  0  0
   26.8371  132.6292    4.7853 O   0  0  0  0  0  0  0  0  0  0  0  0
   26.6525  130.5268    6.0271 O   0  0  0  0  0  0  0  0  0  0  0  0
   25.2675  130.5176    2.1151 C   0  0  0  0  0  0  0  0  0  0  0  0
   25.2682  129.2643    1.9925 O   0  0  0  0  0  0  0  0  0  0  0  0
   26.4436  131.2270    1.9005 O   0  0  0  0  0  0  0  0  0  0  0  0
   19.0794  130.4479    0.5077 N   0  0  0  0  0  0  0  0  0  0  0  0
   19.7052  131.2824    1.5536 C   0  0  0  0  0  0  0  0  0  0  0  0
   19.6282  132.7941    1.2182 C   0  0  0  0  0  0  0  0  0  0  0  0
   18.2901  133.3338    1.5089 N   0  0  0  0  0  0  0  0  0  0  0  0
   20.7085  133.5610    2.0104 C   0  0  0  0  0  0  0  0  0  0  0  0
   21.0467  132.7797    3.5783 S   0  0  0  0  0  0  0  0  0  0  0  0
  1  2  1  0
  2  3  1  0
  3  4  1  0
  3  5  1  0
  5  6  1  0
  6  7  1  0
  7  8  1  0
  8  9  1  0
  9 10  1  0
 10 11  2  0
 11 12  1  0
 12 13  2  0
 13 14  1  0
 14 15  2  0
  8 16  1  0
 16 17  2  0
 16 18  1  0
 18 19  1  0
 19 20  1  0
 20 21  1  0
 21 22  1  0
 22 23  1  0
 22 24  2  0
 22 25  2  0
 19 26  1  0
 26 27  2  0
 26 28  1  0
  5 29  1  0
 29 30  1  0
 30 31  1  0
 31 32  1  0
 31 33  1  0
 33 34  1  0
 15 10  1  0
M  CHG  2  28  -1  29   1
M  END
>  <BIOSOLVEIT.HYDE_ESTIMATED_AFFINITY_LOWER_BOUNDARY [nM]>  (1) 
10024723.733085

>  <BIOSOLVEIT.HYDE_ESTIMATED_AFFINITY_UPPER_BOUNDARY [nM]>  (1) 
996015573.739439

>  <BIOSOLVEIT.HYDE_LIGAND_EFFICIENCY range: ++, +, 0, -, -->  (1) 
--

>  <BIOSOLVEIT.HYDE_LIGAND_LIPOPHILIC_EFFICIENCY range: ++, +, 0, -, -->  (1) 
--

>  <BIOSOLVEIT.INTER_CLASH range: red, yellow, green>  (1) 
yellow

>  <BIOSOLVEIT.INTRA_CLASH range: red, yellow, green>  (1) 
red

>  <BIOSOLVEIT.LOGP>  (1) 
-0.4503

>  <BIOSOLVEIT.MOLECULAR WEIGHT>  (1) 
517.706

>  <BIOSOLVEIT.MOLECULE_CHECKSUM>  (1) 
LTUuNzA5OTswLjE2NzkzOA==

>  <BIOSOLVEIT.TORSION_QUALITY range: red, yellow, green, not rotatable>  (1) 
red

>  <BIOSOLVEIT.TPSA>  (1) 
155.23

$$$$
2IEJ_FII_3
     RDKit          3D

 24 23  0  0  0  0  0  0  0  0999 V2000
   15.0651  133.7119   -2.6799 C   0  0  0  0  0  0  0  0  0  0  0  0
   15.0621  134.4299   -4.0088 C   0  0  0  0  0  0  0  0  0  0  0  0
   13.7540  134.7243   -4.6963 C   0  0  0  0  0  0  0  0  0  0  0  0
   16.2097  134.8188   -4.6036 C   0  0  0  0  0  0  0  0  0  0  0  0
   17.5729  134.5743   -4.0026 C   0  0  0  0  0  0  0  0  0  0  0  0
   18.2339  135.8884   -3.5707 C   0  0  0  0  0  0  0  0  0  0  0  0
   19.6764  135.9419   -4.0262 C   0  0  0  0  0  0  0  0  0  0  0  0
   20.0320  136.7545   -5.2496 C   0  0  0  0  0  0  0  0  0  0  0  0
   20.6098  135.2506   -3.3324 C   0  0  0  0  0  0  0  0  0  0  0  0
   22.0776  135.2181   -3.6774 C   0  0  0  0  0  0  0  0  0  0  0  0
   22.9074  134.7424   -2.4795 C   0  0  0  0  0  0  0  0  0  0  0  0
   23.9322  133.7157   -2.9082 C   0  0  0  0  0  0  0  0  0  0  0  0
   23.4682  132.4107   -3.5110 C   0  0  0  0  0  0  0  0  0  0  0  0
   25.2455  133.9829   -2.7344 C   0  0  0  0  0  0  0  0  0  0  0  0
   26.3404  133.0291   -3.1269 C   0  0  0  0  0  0  0  0  0  0  0  0
   26.9141  132.4755   -1.9673 O   0  0  0  0  0  0  0  0  0  0  0  0
   25.9755  131.6550   -1.4250 N   0  0  0  0  0  0  0  0  0  0  0  0
   25.2607  132.0388   -0.2459 C   0  0  0  0  0  0  0  0  0  0  0  0
   25.4989  133.1488    0.3012 O   0  0  0  0  0  0  0  0  0  0  0  0
   24.2702  131.1045    0.3727 C   0  0  0  0  0  0  0  0  0  0  0  0
   24.8603  130.5679    2.0059 P   0  0  0  0  0  0  0  0  0  0  0  0
   25.2981  129.1223    1.9421 O   0  0  0  0  0  0  0  0  0  0  0  0
   26.1667  131.5303    2.4817 O   0  0  0  0  0  0  0  0  0  0  0  0
   23.6090  130.7252    3.1319 O   0  0  0  0  0  0  0  0  0  0  0  0
  1  2  1  0
  2  3  1  0
  2  4  2  3
  4  5  1  0
  5  6  1  0
  6  7  1  0
  7  8  1  0
  7  9  2  0
  9 10  1  0
 10 11  1  0
 11 12  1  0
 12 13  1  0
 12 14  2  0
 14 15  1  0
 15 16  1  0
 16 17  1  0
 17 18  1  0
 18 19  2  0
 18 20  1  0
 20 21  1  0
 21 22  2  0
 21 23  1  0
 21 24  1  0
M  CHG  2  23  -1  24  -1
M  END
>  <BIOSOLVEIT.HYDE_ESTIMATED_AFFINITY_LOWER_BOUNDARY [nM]>  (2) 
70263.061843

>  <BIOSOLVEIT.HYDE_ESTIMATED_AFFINITY_UPPER_BOUNDARY [nM]>  (2) 
6981050.622197

>  <BIOSOLVEIT.HYDE_LIGAND_EFFICIENCY range: ++, +, 0, -, -->  (2) 
--

>  <BIOSOLVEIT.HYDE_LIGAND_LIPOPHILIC_EFFICIENCY range: ++, +, 0, -, -->  (2) 
--

>  <BIOSOLVEIT.INTER_CLASH range: red, yellow, green>  (2) 
green

>  <BIOSOLVEIT.INTRA_CLASH range: red, yellow, green>  (2) 
green

>  <BIOSOLVEIT.LOGP>  (2) 
2.3671

>  <BIOSOLVEIT.MOLECULAR WEIGHT>  (2) 
357.384

>  <BIOSOLVEIT.MOLECULE_CHECKSUM>  (2) 
LTE4LjAwNjk7MC43NTAyODg=

>  <BIOSOLVEIT.TORSION_QUALITY range: red, yellow, green, not rotatable>  (2) 
red

>  <BIOSOLVEIT.TPSA>  (2) 
101.52

$$$$
1LD8_FPP_3
     RDKit          3D

 24 23  0  0  0  0  0  0  0  0999 V2000
   15.8260  131.3783   -2.9145 C   0  0  0  0  0  0  0  0  0  0  0  0
   16.6068  130.9593   -4.1383 C   0  0  0  0  0  0  0  0  0  0  0  0
   17.3810  131.9928   -4.9150 C   0  0  0  0  0  0  0  0  0  0  0  0
   16.6478  129.6749   -4.5564 C   0  0  0  0  0  0  0  0  0  0  0  0
   15.9391  128.5325   -3.8723 C   0  0  0  0  0  0  0  0  0  0  0  0
   16.8992  127.3619   -3.6345 C   0  0  0  0  0  0  0  0  0  0  0  0
   18.1679  127.8357   -2.9604 C   0  0  0  0  0  0  0  0  0  0  0  0
   18.0814  128.5063   -1.6097 C   0  0  0  0  0  0  0  0  0  0  0  0
   19.3550  127.6474   -3.5779 C   0  0  0  0  0  0  0  0  0  0  0  0
   20.6713  128.0860   -2.9834 C   0  0  0  0  0  0  0  0  0  0  0  0
   21.2076  129.3392   -3.6847 C   0  0  0  0  0  0  0  0  0  0  0  0
   22.4661  129.8387   -3.0090 C   0  0  0  0  0  0  0  0  0  0  0  0
   23.6549  128.9140   -2.8859 C   0  0  0  0  0  0  0  0  0  0  0  0
   22.4990  131.1020   -2.5280 C   0  0  0  0  0  0  0  0  0  0  0  0
   23.6923  131.7053   -1.8393 C   0  0  0  0  0  0  0  0  0  0  0  0
   23.3376  132.0662   -0.5260 O   0  0  0  0  0  0  0  0  0  0  0  0
   24.5312  131.4677    0.5327 P   0  0  0  0  0  0  0  0  0  0  0  0
   24.9756  132.5968    1.4348 O   0  0  0  0  0  0  0  0  0  0  0  0
   25.8556  130.9288   -0.3757 O   0  0  0  0  0  0  0  0  0  0  0  0
   23.8704  130.2108    1.4740 O   0  0  0  0  0  0  0  0  0  0  0  0
   24.9030  129.9625    2.8035 P   0  0  0  0  0  0  0  0  0  0  0  0
   24.6233  128.5958    3.3844 O   0  0  0  0  0  0  0  0  0  0  0  0
   24.6407  131.1270    4.0039 O   0  0  0  0  0  0  0  0  0  0  0  0
   26.5179  130.0189    2.3022 O   0  0  0  0  0  0  0  0  0  0  0  0
  1  2  1  0
  2  3  1  0
  2  4  2  3
  4  5  1  0
  5  6  1  0
  6  7  1  0
  7  8  1  0
  7  9  2  0
  9 10  1  0
 10 11  1  0
 11 12  1  0
 12 13  1  0
 12 14  2  0
 14 15  1  0
 15 16  1  0
 16 17  1  0
 17 18  2  0
 17 19  1  0
 17 20  1  0
 20 21  1  0
 21 22  2  0
 21 23  1  0
 21 24  1  0
M  CHG  3  19  -1  23  -1  24  -1
M  END
>  <BIOSOLVEIT.HYDE_ESTIMATED_AFFINITY_LOWER_BOUNDARY [nM]>  (3) 
929.537435

>  <BIOSOLVEIT.HYDE_ESTIMATED_AFFINITY_UPPER_BOUNDARY [nM]>  (3) 
92355.040044

>  <BIOSOLVEIT.HYDE_LIGAND_EFFICIENCY range: ++, +, 0, -, -->  (3) 
-

>  <BIOSOLVEIT.HYDE_LIGAND_LIPOPHILIC_EFFICIENCY range: ++, +, 0, -, -->  (3) 
-

>  <BIOSOLVEIT.INTER_CLASH range: red, yellow, green>  (3) 
green

>  <BIOSOLVEIT.INTRA_CLASH range: red, yellow, green>  (3) 
green

>  <BIOSOLVEIT.LOGP>  (3) 
2.7359

>  <BIOSOLVEIT.MOLECULAR WEIGHT>  (3) 
379.304

>  <BIOSOLVEIT.MOLECULE_CHECKSUM>  (3) 
LTI4LjcyOTI7MS4xOTcwNQ==

>  <BIOSOLVEIT.TORSION_QUALITY range: red, yellow, green, not rotatable>  (3) 
green

>  <BIOSOLVEIT.TPSA>  (3) 
121.78

$$$$
