1JCQ_739_2
     RDKit          3D

 34 34  0  0  0  0  0  0  0  0999 V2000
   17.9177  133.5918   -3.3725 C   0  0  0  0  0  0  0  0  0  0  0  0
   18.9798  134.4119   -4.1058 C   0  0  0  0  0  0  0  0  0  0  0  0
   19.7648  135.2667   -3.1666 C   0  0  0  0  0  0  0  0  0  0  0  0
   18.8528  136.1640   -2.3078 C   0  0  0  0  0  0  0  0  0  0  0  0
   20.9066  136.0237   -3.7139 C   0  0  0  0  0  0  0  0  0  0  0  0
   20.7149  136.8695   -4.9296 C   0  0  0  0  0  0  0  0  0  0  0  0
   20.6646  138.1638   -4.5974 O   0  0  0  0  0  0  0  0  0  0  0  0
   20.6312  139.1346   -5.6090 C   0  0  0  0  0  0  0  0  0  0  0  0
   20.4303  140.4068   -4.9460 C   0  0  0  0  0  0  0  0  0  0  0  0
   21.3359  140.9085   -3.9217 C   0  0  0  0  0  0  0  0  0  0  0  0
   22.7095  140.8173   -4.1189 C   0  0  0  0  0  0  0  0  0  0  0  0
   23.5688  141.2978   -3.1365 C   0  0  0  0  0  0  0  0  0  0  0  0
   23.0612  141.8627   -1.9719 C   0  0  0  0  0  0  0  0  0  0  0  0
   21.6856  141.9496   -1.7830 C   0  0  0  0  0  0  0  0  0  0  0  0
   20.8182  141.4717   -2.7597 C   0  0  0  0  0  0  0  0  0  0  0  0
   19.6105  138.7416   -6.6266 C   0  0  0  0  0  0  0  0  0  0  0  0
   20.1612  138.5858   -7.7795 O   0  0  0  0  0  0  0  0  0  0  0  0
   18.2409  138.5527   -6.4943 N   0  0  0  0  0  0  0  0  0  0  0  0
   16.9166  138.3701   -6.3665 C   0  0  0  0  0  0  0  0  0  0  0  0
   16.3829  137.4325   -5.3832 C   0  0  0  0  0  0  0  0  0  0  0  0
   15.7862  136.1271   -5.5838 C   0  0  0  0  0  0  0  0  0  0  0  0
   14.9801  135.7326   -7.0506 S   0  0  0  0  0  0  0  0  0  0  0  0
   14.9216  133.9810   -7.3765 C   0  0  0  0  0  0  0  0  0  0  0  0
   15.1589  136.5795   -8.2363 O   0  0  0  0  0  0  0  0  0  0  0  0
   13.4408  136.0187   -6.6961 O   0  0  0  0  0  0  0  0  0  0  0  0
   16.0768  139.6476   -6.1977 C   0  0  0  0  0  0  0  0  0  0  0  0
   15.1545  139.7296   -7.0013 O   0  0  0  0  0  0  0  0  0  0  0  0
   16.3235  140.5898   -5.2606 O   0  0  0  0  0  0  0  0  0  0  0  0
   22.1338  135.3071   -3.6226 N   0  0  0  0  0  0  0  0  0  0  0  0
   22.7789  135.2461   -2.3663 C   0  0  0  0  0  0  0  0  0  0  0  0
   21.9901  135.3033   -1.1235 C   0  0  0  0  0  0  0  0  0  0  0  0
   22.8783  135.8977   -0.0733 N   0  0  0  0  0  0  0  0  0  0  0  0
   21.5595  134.0003   -0.5116 C   0  0  0  0  0  0  0  0  0  0  0  0
   21.1084  132.8098   -1.7144 S   0  0  0  0  0  0  0  0  0  0  0  0
  1  2  1  0
  2  3  1  0
  3  4  1  0
  3  5  1  0
  5  6  1  0
  6  7  1  0
  7  8  1  0
  8  9  1  0
  9 10  1  0
 10 11  2  0
 11 12  1  0
 12 13  2  0
 13 14  1  0
 14 15  2  0
  8 16  1  0
 16 17  2  0
 16 18  1  0
 18 19  1  0
 19 20  1  0
 20 21  1  0
 21 22  1  0
 22 23  1  0
 22 24  2  0
 22 25  2  0
 19 26  1  0
 26 27  2  0
 26 28  1  0
  5 29  1  0
 29 30  1  0
 30 31  1  0
 31 32  1  0
 31 33  1  0
 33 34  1  0
 15 10  1  0
M  CHG  2  29   1  32   1
M  END
>  <BIOSOLVEIT.HYDE_ESTIMATED_AFFINITY_LOWER_BOUNDARY [nM]>  (1) 
14436.054064

>  <BIOSOLVEIT.HYDE_ESTIMATED_AFFINITY_UPPER_BOUNDARY [nM]>  (1) 
1434307.323954

>  <BIOSOLVEIT.HYDE_LIGAND_EFFICIENCY range: ++, +, 0, -, -->  (1) 
--

>  <BIOSOLVEIT.HYDE_LIGAND_LIPOPHILIC_EFFICIENCY range: ++, +, 0, -, -->  (1) 
0

>  <BIOSOLVEIT.INTER_CLASH range: red, yellow, green>  (1) 
green

>  <BIOSOLVEIT.INTRA_CLASH range: red, yellow, green>  (1) 
yellow

>  <BIOSOLVEIT.LOGP>  (1) 
0.1676

>  <BIOSOLVEIT.MOLECULAR WEIGHT>  (1) 
519.722

>  <BIOSOLVEIT.MOLECULE_CHECKSUM>  (1) 
LTIxLjkyOTk7MC42NDQ5OTc=

>  <BIOSOLVEIT.TORSION_QUALITY range: red, yellow, green, not rotatable>  (1) 
red

>  <BIOSOLVEIT.TPSA>  (1) 
154.02

$$$$
1SA4_JAN_1
     RDKit          3D

 34 38  0  0  0  0  0  0  0  0999 V2000
   20.1158  136.1153   -3.6245 C   0  0  0  0  0  0  0  0  0  0  0  0
   20.9740  135.0098   -3.1736 N   0  0  0  0  0  0  0  0  0  0  0  0
   22.3131  134.9016   -3.4112 C   0  0  0  0  0  0  0  0  0  0  0  0
   22.7308  133.7866   -2.8534 N   0  0  0  0  0  0  0  0  0  0  0  0
   21.6702  133.1682   -2.2539 C   0  0  0  0  0  0  0  0  0  0  0  0
   20.5580  133.9333   -2.4518 C   0  0  0  0  0  0  0  0  0  0  0  0
   19.1310  133.6376   -1.9530 C   0  0  0  0  0  0  0  0  0  0  0  0
   19.0509  132.2192   -1.5222 N   0  0  0  0  0  0  0  0  0  0  0  0
   18.8227  134.5620   -0.7493 C   0  0  0  0  0  0  0  0  0  0  0  0
   17.7069  134.3022    0.0405 C   0  0  0  0  0  0  0  0  0  0  0  0
   17.4166  135.1223    1.1257 C   0  0  0  0  0  0  0  0  0  0  0  0
   18.2526  136.1977    1.4053 C   0  0  0  0  0  0  0  0  0  0  0  0
   17.8949  137.2570    2.7906 Cl  0  0  0  0  0  0  0  0  0  0  0  0
   19.3683  136.4587    0.6174 C   0  0  0  0  0  0  0  0  0  0  0  0
   19.6577  135.6379   -0.4676 C   0  0  0  0  0  0  0  0  0  0  0  0
   18.0950  133.8648   -3.0343 C   0  0  0  0  0  0  0  0  0  0  0  0
   18.0255  132.9931   -4.1123 C   0  0  0  0  0  0  0  0  0  0  0  0
   17.0587  133.2432   -5.0770 C   0  0  0  0  0  0  0  0  0  0  0  0
   16.1918  134.3260   -4.9686 C   0  0  0  0  0  0  0  0  0  0  0  0
   16.2905  135.1769   -3.8766 C   0  0  0  0  0  0  0  0  0  0  0  0
   17.2482  134.9537   -2.8939 C   0  0  0  0  0  0  0  0  0  0  0  0
   15.3891  136.3116   -3.7681 C   0  0  0  0  0  0  0  0  0  0  0  0
   15.4604  137.2319   -2.6480 C   0  0  0  0  0  0  0  0  0  0  0  0
   14.7363  136.9582   -1.4925 C   0  0  0  0  0  0  0  0  0  0  0  0
   14.8104  137.8457   -0.4236 C   0  0  0  0  0  0  0  0  0  0  0  0
   15.5939  138.9922   -0.4996 C   0  0  0  0  0  0  0  0  0  0  0  0
   16.3096  139.2457   -1.6651 C   0  0  0  0  0  0  0  0  0  0  0  0
   17.3174  140.7081   -1.7828 Cl  0  0  0  0  0  0  0  0  0  0  0  0
   16.2500  138.3726   -2.7464 C   0  0  0  0  0  0  0  0  0  0  0  0
   14.4652  136.5668   -4.6765 C   0  0  0  0  0  0  0  0  0  0  0  0
   14.3444  135.6862   -5.8225 C   0  0  0  0  0  0  0  0  0  0  0  0
   13.4900  135.9215   -6.6619 O   0  0  0  0  0  0  0  0  0  0  0  0
   15.2120  134.5913   -5.9339 N   0  0  0  0  0  0  0  0  0  0  0  0
   15.0498  133.7312   -7.1182 C   0  0  0  0  0  0  0  0  0  0  0  0
  1  2  1  0
  2  3  1  0
  3  4  2  0
  4  5  1  0
  5  6  2  0
  6  7  1  0
  7  8  1  0
  7  9  1  0
  9 10  2  0
 10 11  1  0
 11 12  2  0
 12 13  1  0
 12 14  1  0
 14 15  2  0
  7 16  1  0
 16 17  2  0
 17 18  1  0
 18 19  2  0
 19 20  1  0
 20 21  2  0
 20 22  1  0
 22 23  1  0
 23 24  2  0
 24 25  1  0
 25 26  2  0
 26 27  1  0
 27 28  1  0
 27 29  2  0
 22 30  2  0
 30 31  1  0
 31 32  2  0
 31 33  1  0
 33 34  1  0
  6  2  1  0
 15  9  1  0
 21 16  1  0
 29 23  1  0
 33 19  1  0
M  CHG  1   8   1
M  END
>  <BIOSOLVEIT.HYDE_ESTIMATED_AFFINITY_LOWER_BOUNDARY [nM]>  (2) 
72900.679718

>  <BIOSOLVEIT.HYDE_ESTIMATED_AFFINITY_UPPER_BOUNDARY [nM]>  (2) 
7243113.552952

>  <BIOSOLVEIT.HYDE_LIGAND_EFFICIENCY range: ++, +, 0, -, -->  (2) 
--

>  <BIOSOLVEIT.HYDE_LIGAND_LIPOPHILIC_EFFICIENCY range: ++, +, 0, -, -->  (2) 
--

>  <BIOSOLVEIT.INTER_CLASH range: red, yellow, green>  (2) 
green

>  <BIOSOLVEIT.INTRA_CLASH range: red, yellow, green>  (2) 
green

>  <BIOSOLVEIT.LOGP>  (2) 
4.6688

>  <BIOSOLVEIT.MOLECULAR WEIGHT>  (2) 
490.412

>  <BIOSOLVEIT.MOLECULE_CHECKSUM>  (2) 
LTE3LjkxNTY7MC41MjY5Mjg=

>  <BIOSOLVEIT.TORSION_QUALITY range: red, yellow, green, not rotatable>  (2) 
yellow

>  <BIOSOLVEIT.TPSA>  (2) 
65.77

$$$$
1MZC_BNE_1
     RDKit          3D

 35 38  0  0  0  0  0  0  0  0999 V2000
   13.9953  135.6109   -6.4534 C   0  0  0  0  0  0  0  0  0  0  0  0
   14.0545  136.1996   -5.0339 C   0  0  0  0  0  0  0  0  0  0  0  0
   15.2213  135.7359   -4.1771 C   0  0  0  0  0  0  0  0  0  0  0  0
   14.9910  134.3068   -3.7153 C   0  0  0  0  0  0  0  0  0  0  0  0
   13.7211  133.7452   -3.8002 C   0  0  0  0  0  0  0  0  0  0  0  0
   13.5334  132.4352   -3.3714 C   0  0  0  0  0  0  0  0  0  0  0  0
   14.5916  131.6887   -2.8636 C   0  0  0  0  0  0  0  0  0  0  0  0
   15.8532  132.2697   -2.7874 C   0  0  0  0  0  0  0  0  0  0  0  0
   16.8858  131.5518   -2.2952 O   0  0  0  0  0  0  0  0  0  0  0  0
   18.2309  131.9564   -2.2991 C   0  0  0  0  0  0  0  0  0  0  0  0
   18.8377  132.2683   -1.0869 C   0  0  0  0  0  0  0  0  0  0  0  0
   20.1694  132.6700   -1.0831 C   0  0  0  0  0  0  0  0  0  0  0  0
   20.8426  133.0135    0.2360 C   0  0  0  0  0  0  0  0  0  0  0  0
   21.7490  134.2408   -0.0215 C   0  0  0  0  0  0  0  0  0  0  0  0
   21.6897  131.9115    0.7396 N   0  0  0  0  0  0  0  0  0  0  0  0
   19.7755  133.3285    1.2957 C   0  0  0  0  0  0  0  0  0  0  0  0
   19.4954  132.5726    2.3960 C   0  0  0  0  0  0  0  0  0  0  0  0
   18.4917  133.2055    3.0676 N   0  0  0  0  0  0  0  0  0  0  0  0
   18.1699  134.2990    2.4101 C   0  0  0  0  0  0  0  0  0  0  0  0
   18.9538  134.4114    1.3042 N   0  0  0  0  0  0  0  0  0  0  0  0
   18.9158  135.4892    0.3046 C   0  0  0  0  0  0  0  0  0  0  0  0
   20.8933  132.7623   -2.2675 C   0  0  0  0  0  0  0  0  0  0  0  0
   20.2762  132.4479   -3.4737 C   0  0  0  0  0  0  0  0  0  0  0  0
   18.9448  132.0448   -3.4896 C   0  0  0  0  0  0  0  0  0  0  0  0
   18.2703  131.7011   -4.8077 C   0  0  0  0  0  0  0  0  0  0  0  0
   17.7566  131.4394   -5.8111 N   0  0  0  0  0  0  0  0  0  0  0  0
   16.0632  133.5779   -3.2107 C   0  0  0  0  0  0  0  0  0  0  0  0
   16.4452  135.6457   -5.0891 C   0  0  0  0  0  0  0  0  0  0  0  0
   17.0596  136.9435   -5.6126 C   0  0  0  0  0  0  0  0  0  0  0  0
   17.8021  137.8020   -4.5845 C   0  0  0  0  0  0  0  0  0  0  0  0
   16.9681  138.5588   -3.5398 C   0  0  0  0  0  0  0  0  0  0  0  0
   16.0121  137.8232   -2.6697 N   0  0  0  0  0  0  0  0  0  0  0  0
   15.8103  138.4323   -1.3467 C   0  0  0  0  0  0  0  0  0  0  0  0
   15.2735  136.6334   -2.9269 C   0  0  0  0  0  0  0  0  0  0  0  0
   14.5611  136.2610   -2.0061 O   0  0  0  0  0  0  0  0  0  0  0  0
  1  2  1  0
  2  3  1  0
  3  4  1  0
  4  5  2  0
  5  6  1  0
  6  7  2  0
  7  8  1  0
  8  9  1  0
  9 10  1  0
 10 11  2  0
 11 12  1  0
 12 13  1  0
 13 14  1  0
 13 15  1  0
 13 16  1  0
 16 17  2  0
 17 18  1  0
 18 19  2  0
 19 20  1  0
 20 21  1  0
 12 22  2  0
 22 23  1  0
 23 24  2  0
 24 25  1  0
 25 26  3  0
  8 27  2  0
  3 28  1  0
 28 29  1  0
 29 30  1  0
 30 31  1  0
 31 32  1  0
 32 33  1  0
 32 34  1  0
 34 35  2  0
 34  3  1  0
 27  4  1  0
 24 10  1  0
 20 16  1  0
M  CHG  1  15   1
M  END
>  <BIOSOLVEIT.HYDE_ESTIMATED_AFFINITY_LOWER_BOUNDARY [nM]>  (3) 
0.318934

>  <BIOSOLVEIT.HYDE_ESTIMATED_AFFINITY_UPPER_BOUNDARY [nM]>  (3) 
31.687984

>  <BIOSOLVEIT.HYDE_LIGAND_EFFICIENCY range: ++, +, 0, -, -->  (3) 
0

>  <BIOSOLVEIT.HYDE_LIGAND_LIPOPHILIC_EFFICIENCY range: ++, +, 0, -, -->  (3) 
0

>  <BIOSOLVEIT.INTER_CLASH range: red, yellow, green>  (3) 
yellow

>  <BIOSOLVEIT.INTRA_CLASH range: red, yellow, green>  (3) 
green

>  <BIOSOLVEIT.LOGP>  (3) 
3.87958

>  <BIOSOLVEIT.MOLECULAR WEIGHT>  (3) 
472.61

>  <BIOSOLVEIT.MOLECULE_CHECKSUM>  (3) 
LTQ4LjUwNTsxLjM4NTg2

>  <BIOSOLVEIT.TORSION_QUALITY range: red, yellow, green, not rotatable>  (3) 
green

>  <BIOSOLVEIT.TPSA>  (3) 
98.79

$$$$
1LD7_U66_1
     RDKit          3D

 34 39  0  0  0  0  0  0  0  0999 V2000
   15.4009  140.3717   -6.3130 N   0  0  0  0  0  0  0  0  0  0  0  0
   16.3251  139.8492   -5.8522 C   0  0  0  0  0  0  0  0  0  0  0  0
   17.5016  139.1836   -5.2648 C   0  0  0  0  0  0  0  0  0  0  0  0
   17.9603  138.0168   -6.1785 C   0  0  0  0  0  0  0  0  0  0  0  0
   17.2619  136.7307   -5.8305 C   0  0  0  0  0  0  0  0  0  0  0  0
   17.1431  136.3725   -4.5417 C   0  0  0  0  0  0  0  0  0  0  0  0
   17.6695  137.3184   -3.4865 C   0  0  0  0  0  0  0  0  0  0  0  0
   17.2024  138.7589   -3.7877 C   0  0  0  0  0  0  0  0  0  0  0  0
   17.8249  139.6910   -2.8965 O   0  0  0  0  0  0  0  0  0  0  0  0
   17.5208  139.7498   -1.5332 C   0  0  0  0  0  0  0  0  0  0  0  0
   16.6368  140.7220   -1.0582 C   0  0  0  0  0  0  0  0  0  0  0  0
   16.3276  140.7875    0.3032 C   0  0  0  0  0  0  0  0  0  0  0  0
   16.8803  139.8596    1.2006 C   0  0  0  0  0  0  0  0  0  0  0  0
   16.5673  139.9207    2.5665 C   0  0  0  0  0  0  0  0  0  0  0  0
   17.1105  138.9908    3.4545 C   0  0  0  0  0  0  0  0  0  0  0  0
   17.9493  137.9771    2.9876 C   0  0  0  0  0  0  0  0  0  0  0  0
   18.2644  137.8847    1.6265 C   0  0  0  0  0  0  0  0  0  0  0  0
   17.7597  138.8541    0.7237 C   0  0  0  0  0  0  0  0  0  0  0  0
   18.1116  138.8505   -0.6396 C   0  0  0  0  0  0  0  0  0  0  0  0
   19.0494  136.7713    1.1731 N   0  0  0  0  0  0  0  0  0  0  0  0
   20.5010  136.7597    1.2182 C   0  0  0  0  0  0  0  0  0  0  0  0
   20.9353  135.5721    0.3403 C   0  0  0  0  0  0  0  0  0  0  0  0
   19.7308  135.2378   -0.5635 C   0  0  0  0  0  0  0  0  0  0  0  0
   19.5934  133.7795   -0.7835 N   0  0  0  0  0  0  0  0  0  0  0  0
   18.6342  133.4160   -1.8479 C   0  0  0  0  0  0  0  0  0  0  0  0
   19.1181  133.8113   -3.2559 C   0  0  0  0  0  0  0  0  0  0  0  0
   18.1711  133.3268   -4.3175 C   0  0  0  0  0  0  0  0  0  0  0  0
   18.3371  132.1891   -5.0767 C   0  0  0  0  0  0  0  0  0  0  0  0
   17.3022  132.0671   -5.9318 N   0  0  0  0  0  0  0  0  0  0  0  0
   16.5206  133.1365   -5.6712 C   0  0  0  0  0  0  0  0  0  0  0  0
   17.0180  133.9204   -4.6930 N   0  0  0  0  0  0  0  0  0  0  0  0
   16.3814  135.1270   -4.1552 C   0  0  0  0  0  0  0  0  0  0  0  0
   18.6048  135.8458    0.1969 C   0  0  0  0  0  0  0  0  0  0  0  0
   17.3846  135.6624   -0.0566 O   0  0  0  0  0  0  0  0  0  0  0  0
  1  2  3  0
  2  3  1  0
  3  4  1  0
  4  5  1  0
  5  6  2  0
  6  7  1  0
  7  8  1  0
  8  9  1  0
  9 10  1  0
 10 11  2  0
 11 12  1  0
 12 13  2  0
 13 14  1  0
 14 15  2  0
 15 16  1  0
 16 17  2  0
 17 18  1  0
 18 19  2  0
 17 20  1  0
 20 21  1  0
 21 22  1  0
 22 23  1  0
 23 24  1  0
 24 25  1  0
 25 26  1  0
 26 27  1  0
 27 28  2  0
 28 29  1  0
 29 30  2  0
 30 31  1  0
 31 32  1  0
 23 33  1  0
 33 34  2  0
  8  3  1  0
 19 10  1  0
 33 20  1  0
 32  6  1  0
 18 13  1  0
 31 27  1  0
M  CHG  1  24   1
M  END
>  <BIOSOLVEIT.HYDE_ESTIMATED_AFFINITY_LOWER_BOUNDARY [nM]>  (4) 
737477.476857

>  <BIOSOLVEIT.HYDE_ESTIMATED_AFFINITY_UPPER_BOUNDARY [nM]>  (4) 
73272747.637671

>  <BIOSOLVEIT.HYDE_LIGAND_EFFICIENCY range: ++, +, 0, -, -->  (4) 
--

>  <BIOSOLVEIT.HYDE_LIGAND_LIPOPHILIC_EFFICIENCY range: ++, +, 0, -, -->  (4) 
--

>  <BIOSOLVEIT.INTER_CLASH range: red, yellow, green>  (4) 
green

>  <BIOSOLVEIT.INTRA_CLASH range: red, yellow, green>  (4) 
green

>  <BIOSOLVEIT.LOGP>  (4) 
2.56868

>  <BIOSOLVEIT.MOLECULAR WEIGHT>  (4) 
454.551

>  <BIOSOLVEIT.MOLECULE_CHECKSUM>  (4) 
LTEyLjE3ODk7MC4zNTgyMDM=

>  <BIOSOLVEIT.TORSION_QUALITY range: red, yellow, green, not rotatable>  (4) 
not rotatable

>  <BIOSOLVEIT.TPSA>  (4) 
87.76

$$$$
1S63_778_3
     RDKit          3D

 29 32  0  0  0  0  0  0  0  0999 V2000
   12.2078  131.3480   -2.1535 N   0  0  0  0  0  0  0  0  0  0  0  0
   13.0474  131.9772   -2.6410 C   0  0  0  0  0  0  0  0  0  0  0  0
   14.0921  132.7611   -3.2458 C   0  0  0  0  0  0  0  0  0  0  0  0
   15.4198  132.3926   -3.0534 C   0  0  0  0  0  0  0  0  0  0  0  0
   16.4397  133.1403   -3.6323 C   0  0  0  0  0  0  0  0  0  0  0  0
   16.1134  134.2535   -4.3999 C   0  0  0  0  0  0  0  0  0  0  0  0
   17.2183  135.0803   -5.0369 C   0  0  0  0  0  0  0  0  0  0  0  0
   16.6644  136.0702   -5.9656 N   0  0  0  0  0  0  0  0  0  0  0  0
   16.2801  135.8197   -7.2506 C   0  0  0  0  0  0  0  0  0  0  0  0
   15.8355  136.9460   -7.7631 N   0  0  0  0  0  0  0  0  0  0  0  0
   15.9287  137.9286   -6.8184 C   0  0  0  0  0  0  0  0  0  0  0  0
   16.4512  137.3843   -5.6816 C   0  0  0  0  0  0  0  0  0  0  0  0
   16.7290  138.1012   -4.3706 C   0  0  0  0  0  0  0  0  0  0  0  0
   17.0486  139.5364   -4.5740 N   0  0  0  0  0  0  0  0  0  0  0  0
   17.1375  140.2802   -3.3084 C   0  0  0  0  0  0  0  0  0  0  0  0
   18.1951  139.6676   -2.4071 C   0  0  0  0  0  0  0  0  0  0  0  0
   19.4740  139.4252   -3.0986 N   0  0  0  0  0  0  0  0  0  0  0  0
   20.6200  139.1959   -2.3245 C   0  0  0  0  0  0  0  0  0  0  0  0
   21.3384  140.2793   -1.8291 C   0  0  0  0  0  0  0  0  0  0  0  0
   22.4739  140.0458   -1.0602 C   0  0  0  0  0  0  0  0  0  0  0  0
   22.8937  138.7490   -0.7847 C   0  0  0  0  0  0  0  0  0  0  0  0
   22.1602  137.6802   -1.2896 C   0  0  0  0  0  0  0  0  0  0  0  0
   22.6807  136.0129   -0.9480 Cl  0  0  0  0  0  0  0  0  0  0  0  0
   21.0219  137.8907   -2.0607 C   0  0  0  0  0  0  0  0  0  0  0  0
   19.5481  139.4179   -4.4963 C   0  0  0  0  0  0  0  0  0  0  0  0
   20.5844  139.1704   -5.0912 O   0  0  0  0  0  0  0  0  0  0  0  0
   18.3068  139.7390   -5.3164 C   0  0  0  0  0  0  0  0  0  0  0  0
   14.7870  134.6251   -4.5938 C   0  0  0  0  0  0  0  0  0  0  0  0
   13.7688  133.8751   -4.0139 C   0  0  0  0  0  0  0  0  0  0  0  0
  1  2  3  0
  2  3  1  0
  3  4  2  0
  4  5  1  0
  5  6  2  0
  6  7  1  0
  7  8  1  0
  8  9  1  0
  9 10  2  0
 10 11  1  0
 11 12  2  0
 12 13  1  0
 13 14  1  0
 14 15  1  0
 15 16  1  0
 16 17  1  0
 17 18  1  0
 18 19  2  0
 19 20  1  0
 20 21  2  0
 21 22  1  0
 22 23  1  0
 22 24  2  0
 17 25  1  0
 25 26  2  0
 25 27  1  0
  6 28  1  0
 28 29  2  0
 29  3  1  0
 12  8  1  0
 27 14  1  0
 24 18  1  0
M  CHG  1  14   1
M  END
>  <BIOSOLVEIT.HYDE_ESTIMATED_AFFINITY_LOWER_BOUNDARY [nM]>  (5) 
5833757.303594

>  <BIOSOLVEIT.HYDE_ESTIMATED_AFFINITY_UPPER_BOUNDARY [nM]>  (5) 
579618280.014946

>  <BIOSOLVEIT.HYDE_LIGAND_EFFICIENCY range: ++, +, 0, -, -->  (5) 
--

>  <BIOSOLVEIT.HYDE_LIGAND_LIPOPHILIC_EFFICIENCY range: ++, +, 0, -, -->  (5) 
--

>  <BIOSOLVEIT.INTER_CLASH range: red, yellow, green>  (5) 
green

>  <BIOSOLVEIT.INTRA_CLASH range: red, yellow, green>  (5) 
green

>  <BIOSOLVEIT.LOGP>  (5) 
1.88818

>  <BIOSOLVEIT.MOLECULAR WEIGHT>  (5) 
406.895

>  <BIOSOLVEIT.MOLECULE_CHECKSUM>  (5) 
LTcuMDUxOTk7MC4yNDMxNzI=

>  <BIOSOLVEIT.TORSION_QUALITY range: red, yellow, green, not rotatable>  (5) 
green

>  <BIOSOLVEIT.TPSA>  (5) 
66.36

$$$$
3E37_ED5_1
     RDKit          3D

 43 46  0  0  0  0  0  0  0  0999 V2000
   17.0032  137.7336   -4.6043 C   0  0  0  0  0  0  0  0  0  0  0  0
   17.8123  139.0043   -4.8070 C   0  0  0  0  0  0  0  0  0  0  0  0
   17.1845  140.2271   -4.5915 C   0  0  0  0  0  0  0  0  0  0  0  0
   17.9032  141.4041   -4.7704 C   0  0  0  0  0  0  0  0  0  0  0  0
   19.2371  141.3516   -5.1613 C   0  0  0  0  0  0  0  0  0  0  0  0
   19.8663  140.1299   -5.3774 C   0  0  0  0  0  0  0  0  0  0  0  0
   19.1470  138.9523   -5.1986 C   0  0  0  0  0  0  0  0  0  0  0  0
   19.9688  137.3983   -5.4797 S   0  0  0  0  0  0  0  0  0  0  0  0
   21.1907  137.6183   -6.3281 O   0  0  0  0  0  0  0  0  0  0  0  0
   19.0353  136.5305   -6.2762 O   0  0  0  0  0  0  0  0  0  0  0  0
   20.3788  136.5193   -4.0127 N   0  0  0  0  0  0  0  0  0  0  0  0
   19.2669  135.7385   -3.4330 C   0  0  0  0  0  0  0  0  0  0  0  0
   19.0021  134.3936   -4.1355 C   0  0  0  0  0  0  0  0  0  0  0  0
   18.6901  133.3586   -3.1440 N   0  0  0  0  0  0  0  0  0  0  0  0
   19.7142  132.8634   -2.2165 C   0  0  0  0  0  0  0  0  0  0  0  0
   21.0901  133.3578   -2.6352 C   0  0  0  0  0  0  0  0  0  0  0  0
   21.7027  133.0999   -3.8262 C   0  0  0  0  0  0  0  0  0  0  0  0
   22.9124  133.7280   -3.7949 N   0  0  0  0  0  0  0  0  0  0  0  0
   23.0373  134.3428   -2.6382 C   0  0  0  0  0  0  0  0  0  0  0  0
   21.9179  134.1394   -1.8926 N   0  0  0  0  0  0  0  0  0  0  0  0
   21.6554  134.6557   -0.5410 C   0  0  0  0  0  0  0  0  0  0  0  0
   17.3261  132.9564   -2.9589 C   0  0  0  0  0  0  0  0  0  0  0  0
   16.3057  133.8695   -3.2048 C   0  0  0  0  0  0  0  0  0  0  0  0
   14.9784  133.4928   -3.0288 C   0  0  0  0  0  0  0  0  0  0  0  0
   14.6904  132.1994   -2.6074 C   0  0  0  0  0  0  0  0  0  0  0  0
   13.2441  131.7745   -2.4125 C   0  0  0  0  0  0  0  0  0  0  0  0
   12.1430  131.4509   -2.2649 N   0  0  0  0  0  0  0  0  0  0  0  0
   15.7073  131.2826   -2.3606 C   0  0  0  0  0  0  0  0  0  0  0  0
   17.0336  131.6633   -2.5373 C   0  0  0  0  0  0  0  0  0  0  0  0
   21.1562  137.3085   -3.0382 C   0  0  0  0  0  0  0  0  0  0  0  0
   20.2386  137.8849   -1.9398 C   0  0  0  0  0  0  0  0  0  0  0  0
   20.9267  137.7213   -0.5994 C   0  0  0  0  0  0  0  0  0  0  0  0
   20.4403  138.7819    0.3727 C   0  0  0  0  0  0  0  0  0  0  0  0
   19.0371  139.0598    0.0464 N   0  0  0  0  0  0  0  0  0  0  0  0
   17.9733  138.6675    0.8719 C   0  0  0  0  0  0  0  0  0  0  0  0
   18.1840  138.3991    2.0859 O   0  0  0  0  0  0  0  0  0  0  0  0
   16.6762  138.5781    0.3399 O   0  0  0  0  0  0  0  0  0  0  0  0
   15.7565  137.4894    0.5107 C   0  0  0  0  0  0  0  0  0  0  0  0
   15.3880  137.3182    1.9970 C   0  0  0  0  0  0  0  0  0  0  0  0
   14.4920  137.7077   -0.3416 C   0  0  0  0  0  0  0  0  0  0  0  0
   16.4671  136.2163    0.0264 C   0  0  0  0  0  0  0  0  0  0  0  0
   18.8696  139.8152   -1.2001 C   0  0  0  0  0  0  0  0  0  0  0  0
   19.9490  139.3621   -2.1698 C   0  0  0  0  0  0  0  0  0  0  0  0
  1  2  1  0
  2  3  2  0
  3  4  1  0
  4  5  2  0
  5  6  1  0
  6  7  2  0
  7  8  1  0
  8  9  2  0
  8 10  2  0
  8 11  1  0
 11 12  1  0
 12 13  1  0
 13 14  1  0
 14 15  1  0
 15 16  1  0
 16 17  2  0
 17 18  1  0
 18 19  2  0
 19 20  1  0
 20 21  1  0
 14 22  1  0
 22 23  2  0
 23 24  1  0
 24 25  2  0
 25 26  1  0
 26 27  3  0
 25 28  1  0
 28 29  2  0
 11 30  1  0
 30 31  1  0
 31 32  1  0
 32 33  1  0
 33 34  1  0
 34 35  1  0
 35 36  2  0
 35 37  1  0
 37 38  1  0
 38 39  1  0
 38 40  1  0
 38 41  1  0
 34 42  1  0
 42 43  1  0
  7  2  1  0
 20 16  1  0
 29 22  1  0
 43 31  1  0
M  END
>  <BIOSOLVEIT.HYDE_ESTIMATED_AFFINITY_LOWER_BOUNDARY [nM]>  (6) 
8013.205534

>  <BIOSOLVEIT.HYDE_ESTIMATED_AFFINITY_UPPER_BOUNDARY [nM]>  (6) 
796159.347672

>  <BIOSOLVEIT.HYDE_LIGAND_EFFICIENCY range: ++, +, 0, -, -->  (6) 
--

>  <BIOSOLVEIT.HYDE_LIGAND_LIPOPHILIC_EFFICIENCY range: ++, +, 0, -, -->  (6) 
--

>  <BIOSOLVEIT.INTER_CLASH range: red, yellow, green>  (6) 
yellow

>  <BIOSOLVEIT.INTRA_CLASH range: red, yellow, green>  (6) 
yellow

>  <BIOSOLVEIT.LOGP>  (6) 
5.5954

>  <BIOSOLVEIT.MOLECULAR WEIGHT>  (6) 
606.787

>  <BIOSOLVEIT.MOLECULE_CHECKSUM>  (6) 
LTIzLjM4OTE7MC41NDM5MzM=

>  <BIOSOLVEIT.TORSION_QUALITY range: red, yellow, green, not rotatable>  (6) 
red

>  <BIOSOLVEIT.TPSA>  (6) 
111.77

$$$$
2IEJ_S48_3
     RDKit          3D

 38 42  0  0  0  0  0  0  0  0999 V2000
   17.8400  134.8897   -6.9113 C   0  0  0  0  0  0  0  0  0  0  0  0
   16.5227  134.6218   -7.3752 O   0  0  0  0  0  0  0  0  0  0  0  0
   15.7296  135.5941   -7.9910 C   0  0  0  0  0  0  0  0  0  0  0  0
   16.0548  136.0771   -9.1099 O   0  0  0  0  0  0  0  0  0  0  0  0
   14.4675  136.0465   -7.3276 C   0  0  0  0  0  0  0  0  0  0  0  0
   14.7580  137.1157   -6.3527 N   0  0  0  0  0  0  0  0  0  0  0  0
   15.4942  136.6357   -5.1735 C   0  0  0  0  0  0  0  0  0  0  0  0
   15.2559  137.5525   -3.9829 C   0  0  0  0  0  0  0  0  0  0  0  0
   15.7663  136.9744   -2.6768 C   0  0  0  0  0  0  0  0  0  0  0  0
   15.9530  137.8460   -1.6103 C   0  0  0  0  0  0  0  0  0  0  0  0
   16.3881  137.3481   -0.3868 C   0  0  0  0  0  0  0  0  0  0  0  0
   16.5892  138.2422    0.7364 C   0  0  0  0  0  0  0  0  0  0  0  0
   16.3400  139.6015    0.5817 C   0  0  0  0  0  0  0  0  0  0  0  0
   16.5354  140.4540    1.6631 C   0  0  0  0  0  0  0  0  0  0  0  0
   16.9741  139.9537    2.8839 C   0  0  0  0  0  0  0  0  0  0  0  0
   17.2214  138.5924    3.0294 C   0  0  0  0  0  0  0  0  0  0  0  0
   17.0288  137.7319    1.9537 C   0  0  0  0  0  0  0  0  0  0  0  0
   16.6339  135.9882   -0.2362 C   0  0  0  0  0  0  0  0  0  0  0  0
   16.4456  135.1443   -1.3245 C   0  0  0  0  0  0  0  0  0  0  0  0
   16.0115  135.6081   -2.5685 C   0  0  0  0  0  0  0  0  0  0  0  0
   15.8278  134.7474   -3.6591 N   0  0  0  0  0  0  0  0  0  0  0  0
   16.4257  133.4130   -3.7222 C   0  0  0  0  0  0  0  0  0  0  0  0
   17.8920  133.4440   -3.3963 C   0  0  0  0  0  0  0  0  0  0  0  0
   18.8410  134.1692   -4.0551 C   0  0  0  0  0  0  0  0  0  0  0  0
   20.0319  133.9151   -3.4417 N   0  0  0  0  0  0  0  0  0  0  0  0
   19.8242  133.0725   -2.4525 C   0  0  0  0  0  0  0  0  0  0  0  0
   18.5012  132.7624   -2.3904 N   0  0  0  0  0  0  0  0  0  0  0  0
   17.8538  131.8579   -1.4285 C   0  0  0  0  0  0  0  0  0  0  0  0
   15.0800  135.2111   -4.8436 C   0  0  0  0  0  0  0  0  0  0  0  0
   15.4895  138.4915   -7.1585 S   0  0  0  0  0  0  0  0  0  0  0  0
   15.0682  139.7650   -6.4777 O   0  0  0  0  0  0  0  0  0  0  0  0
   15.0948  138.5460   -8.6080 O   0  0  0  0  0  0  0  0  0  0  0  0
   17.2325  138.3386   -7.0631 C   0  0  0  0  0  0  0  0  0  0  0  0
   18.0011  138.7537   -6.0191 C   0  0  0  0  0  0  0  0  0  0  0  0
   19.2793  138.4434   -6.3612 N   0  0  0  0  0  0  0  0  0  0  0  0
   20.4752  138.6980   -5.5454 C   0  0  0  0  0  0  0  0  0  0  0  0
   19.2648  137.8537   -7.5878 C   0  0  0  0  0  0  0  0  0  0  0  0
   18.0279  137.7849   -8.0219 N   0  0  0  0  0  0  0  0  0  0  0  0
  1  2  1  0
  2  3  1  0
  3  4  2  0
  3  5  1  0
  5  6  1  0
  6  7  1  0
  7  8  1  0
  8  9  1  0
  9 10  2  0
 10 11  1  0
 11 12  1  0
 12 13  2  0
 13 14  1  0
 14 15  2  0
 15 16  1  0
 16 17  2  0
 11 18  2  0
 18 19  1  0
 19 20  2  0
 20 21  1  0
 21 22  1  0
 22 23  1  0
 23 24  2  0
 24 25  1  0
 25 26  2  0
 26 27  1  0
 27 28  1  0
 21 29  1  0
  6 30  1  0
 30 31  2  0
 30 32  2  0
 30 33  1  0
 33 34  2  0
 34 35  1  0
 35 36  1  0
 35 37  1  0
 37 38  2  0
 29  7  1  0
 38 33  1  0
 20  9  1  0
 27 23  1  0
 17 12  1  0
M  END
>  <BIOSOLVEIT.HYDE_ESTIMATED_AFFINITY_LOWER_BOUNDARY [nM]>  (7) 
1302493299.267104

>  <BIOSOLVEIT.HYDE_ESTIMATED_AFFINITY_UPPER_BOUNDARY [nM]>  (7) 
129410410232.034256

>  <BIOSOLVEIT.HYDE_LIGAND_EFFICIENCY range: ++, +, 0, -, -->  (7) 
--

>  <BIOSOLVEIT.HYDE_LIGAND_LIPOPHILIC_EFFICIENCY range: ++, +, 0, -, -->  (7) 
--

>  <BIOSOLVEIT.INTER_CLASH range: red, yellow, green>  (7) 
yellow

>  <BIOSOLVEIT.INTRA_CLASH range: red, yellow, green>  (7) 
yellow

>  <BIOSOLVEIT.LOGP>  (7) 
3.2664

>  <BIOSOLVEIT.MOLECULAR WEIGHT>  (7) 
534.637

>  <BIOSOLVEIT.MOLECULE_CHECKSUM>  (7) 
Ni4zNTUxNDsw

>  <BIOSOLVEIT.TORSION_QUALITY range: red, yellow, green, not rotatable>  (7) 
red

>  <BIOSOLVEIT.TPSA>  (7) 
102.56

$$$$
