1JCQ_739_3
     RDKit          3D

 34 34  0  0  0  0  0  0  0  0999 V2000
   18.0777  134.5822    1.6934 C   0  0  0  0  0  0  0  0  0  0  0  0
   18.8960  133.6191    2.5510 C   0  0  0  0  0  0  0  0  0  0  0  0
   19.6955  132.5562    1.7459 C   0  0  0  0  0  0  0  0  0  0  0  0
   18.8985  132.1959    0.4769 C   0  0  0  0  0  0  0  0  0  0  0  0
   21.1751  132.9470    1.3570 C   0  0  0  0  0  0  0  0  0  0  0  0
   21.2827  134.4307    0.9192 C   0  0  0  0  0  0  0  0  0  0  0  0
   21.1117  134.5655   -0.4820 O   0  0  0  0  0  0  0  0  0  0  0  0
   22.2521  135.1397   -1.1068 C   0  0  0  0  0  0  0  0  0  0  0  0
   22.2812  134.7780   -2.6039 C   0  0  0  0  0  0  0  0  0  0  0  0
   20.9236  134.3626   -3.1051 C   0  0  0  0  0  0  0  0  0  0  0  0
   20.0661  135.3222   -3.6325 C   0  0  0  0  0  0  0  0  0  0  0  0
   18.8132  134.9318   -4.0933 C   0  0  0  0  0  0  0  0  0  0  0  0
   18.4225  133.5992   -4.0279 C   0  0  0  0  0  0  0  0  0  0  0  0
   19.2869  132.6461   -3.4983 C   0  0  0  0  0  0  0  0  0  0  0  0
   20.5419  133.0267   -3.0349 C   0  0  0  0  0  0  0  0  0  0  0  0
   22.1671  136.6342   -0.9738 C   0  0  0  0  0  0  0  0  0  0  0  0
   21.6606  137.3143   -1.9081 O   0  0  0  0  0  0  0  0  0  0  0  0
   22.7032  137.2868    0.1870 N   0  0  0  0  0  0  0  0  0  0  0  0
   22.6908  138.7433    0.3442 C   0  0  0  0  0  0  0  0  0  0  0  0
   21.3228  139.1994    0.8847 C   0  0  0  0  0  0  0  0  0  0  0  0
   20.8617  138.3544    2.0783 C   0  0  0  0  0  0  0  0  0  0  0  0
   19.2455  138.8701    2.6344 S   0  0  0  0  0  0  0  0  0  0  0  0
   18.7496  137.8608    4.0121 C   0  0  0  0  0  0  0  0  0  0  0  0
   19.2907  140.3093    3.0651 O   0  0  0  0  0  0  0  0  0  0  0  0
   18.2495  138.7126    1.5200 O   0  0  0  0  0  0  0  0  0  0  0  0
   23.8071  139.1567    1.2605 C   0  0  0  0  0  0  0  0  0  0  0  0
   24.2343  140.3418    1.2519 O   0  0  0  0  0  0  0  0  0  0  0  0
   24.3874  138.2248    2.1118 O   0  0  0  0  0  0  0  0  0  0  0  0
   22.1996  132.6516    2.3979 N   0  0  0  0  0  0  0  0  0  0  0  0
   21.7403  132.5583    3.8014 C   0  0  0  0  0  0  0  0  0  0  0  0
   22.4788  133.4854    4.8129 C   0  0  0  0  0  0  0  0  0  0  0  0
   22.2377  132.9960    6.1781 N   0  0  0  0  0  0  0  0  0  0  0  0
   22.0101  134.9574    4.7065 C   0  0  0  0  0  0  0  0  0  0  0  0
   23.1347  135.9547    3.7534 S   0  0  0  0  0  0  0  0  0  0  0  0
  1  2  1  0
  2  3  1  0
  3  4  1  0
  3  5  1  0
  5  6  1  0
  6  7  1  0
  7  8  1  0
  8  9  1  0
  9 10  1  0
 10 11  2  0
 11 12  1  0
 12 13  2  0
 13 14  1  0
 14 15  2  0
  8 16  1  0
 16 17  2  0
 16 18  1  0
 18 19  1  0
 19 20  1  0
 20 21  1  0
 21 22  1  0
 22 23  1  0
 22 24  2  0
 22 25  2  0
 19 26  1  0
 26 27  2  0
 26 28  1  0
  5 29  1  0
 29 30  1  0
 30 31  1  0
 31 32  1  0
 31 33  1  0
 33 34  1  0
 15 10  1  0
M  CHG  3  28  -1  29   1  32   1
M  END
>  <BIOSOLVEIT.HYDE_ESTIMATED_AFFINITY_LOWER_BOUNDARY [nM]>  (1) 
4509632.044385

>  <BIOSOLVEIT.HYDE_ESTIMATED_AFFINITY_UPPER_BOUNDARY [nM]>  (1) 
448058606.664456

>  <BIOSOLVEIT.HYDE_LIGAND_EFFICIENCY range: ++, +, 0, -, -->  (1) 
--

>  <BIOSOLVEIT.HYDE_LIGAND_LIPOPHILIC_EFFICIENCY range: ++, +, 0, -, -->  (1) 
-

>  <BIOSOLVEIT.INTER_CLASH range: red, yellow, green>  (1) 
green

>  <BIOSOLVEIT.INTRA_CLASH range: red, yellow, green>  (1) 
green

>  <BIOSOLVEIT.LOGP>  (1) 
-1.1671

>  <BIOSOLVEIT.MOLECULAR WEIGHT>  (1) 
518.714

>  <BIOSOLVEIT.MOLECULE_CHECKSUM>  (1) 
LTcuNjkwMTg7MC4yMjYxODI=

>  <BIOSOLVEIT.TORSION_QUALITY range: red, yellow, green, not rotatable>  (1) 
red

>  <BIOSOLVEIT.TPSA>  (1) 
156.85

$$$$
1SA4_JAN_3
     RDKit          3D

 34 38  0  0  0  0  0  0  0  0999 V2000
   17.9378  136.1939    0.7327 C   0  0  0  0  0  0  0  0  0  0  0  0
   16.5339  136.3005    0.3091 N   0  0  0  0  0  0  0  0  0  0  0  0
   15.5926  137.1011    0.8875 C   0  0  0  0  0  0  0  0  0  0  0  0
   14.4634  136.9275    0.2366 N   0  0  0  0  0  0  0  0  0  0  0  0
   14.6648  136.0178   -0.7627 C   0  0  0  0  0  0  0  0  0  0  0  0
   15.9683  135.6170   -0.7234 C   0  0  0  0  0  0  0  0  0  0  0  0
   16.6530  134.6057   -1.6601 C   0  0  0  0  0  0  0  0  0  0  0  0
   17.8483  134.0567   -0.9686 N   0  0  0  0  0  0  0  0  0  0  0  0
   15.7123  133.4621   -2.0036 C   0  0  0  0  0  0  0  0  0  0  0  0
   16.1565  132.1505   -1.8661 C   0  0  0  0  0  0  0  0  0  0  0  0
   15.3078  131.0927   -2.1754 C   0  0  0  0  0  0  0  0  0  0  0  0
   14.0192  131.3657   -2.6212 C   0  0  0  0  0  0  0  0  0  0  0  0
   12.9208  130.0233   -3.0214 Cl  0  0  0  0  0  0  0  0  0  0  0  0
   13.5737  132.6758   -2.7589 C   0  0  0  0  0  0  0  0  0  0  0  0
   14.4232  133.7327   -2.4493 C   0  0  0  0  0  0  0  0  0  0  0  0
   17.0955  135.3304   -2.9547 C   0  0  0  0  0  0  0  0  0  0  0  0
   16.1377  135.7526   -3.8664 C   0  0  0  0  0  0  0  0  0  0  0  0
   16.5844  136.3982   -5.0116 C   0  0  0  0  0  0  0  0  0  0  0  0
   17.9400  136.6145   -5.2381 C   0  0  0  0  0  0  0  0  0  0  0  0
   18.8695  136.1784   -4.3042 C   0  0  0  0  0  0  0  0  0  0  0  0
   18.4542  135.5284   -3.1476 C   0  0  0  0  0  0  0  0  0  0  0  0
   20.2855  136.3986   -4.5452 C   0  0  0  0  0  0  0  0  0  0  0  0
   21.2934  135.9533   -3.6005 C   0  0  0  0  0  0  0  0  0  0  0  0
   22.1470  134.9133   -3.9529 C   0  0  0  0  0  0  0  0  0  0  0  0
   23.1102  134.4924   -3.0415 C   0  0  0  0  0  0  0  0  0  0  0  0
   23.2259  135.0963   -1.7940 C   0  0  0  0  0  0  0  0  0  0  0  0
   22.3613  136.1347   -1.4631 C   0  0  0  0  0  0  0  0  0  0  0  0
   22.4922  136.9198    0.1290 Cl  0  0  0  0  0  0  0  0  0  0  0  0
   21.3903  136.5713   -2.3584 C   0  0  0  0  0  0  0  0  0  0  0  0
   20.7291  137.0085   -5.6293 C   0  0  0  0  0  0  0  0  0  0  0  0
   19.7724  137.4749   -6.6144 C   0  0  0  0  0  0  0  0  0  0  0  0
   20.1823  138.0393   -7.6161 O   0  0  0  0  0  0  0  0  0  0  0  0
   18.4054  137.2639   -6.3887 N   0  0  0  0  0  0  0  0  0  0  0  0
   17.4768  137.7533   -7.4216 C   0  0  0  0  0  0  0  0  0  0  0  0
  1  2  1  0
  2  3  1  0
  3  4  2  0
  4  5  1  0
  5  6  2  0
  6  7  1  0
  7  8  1  0
  7  9  1  0
  9 10  2  0
 10 11  1  0
 11 12  2  0
 12 13  1  0
 12 14  1  0
 14 15  2  0
  7 16  1  0
 16 17  2  0
 17 18  1  0
 18 19  2  0
 19 20  1  0
 20 21  2  0
 20 22  1  0
 22 23  1  0
 23 24  2  0
 24 25  1  0
 25 26  2  0
 26 27  1  0
 27 28  1  0
 27 29  2  0
 22 30  2  0
 30 31  1  0
 31 32  2  0
 31 33  1  0
 33 34  1  0
  6  2  1  0
 15  9  1  0
 21 16  1  0
 29 23  1  0
 33 19  1  0
M  END
>  <BIOSOLVEIT.HYDE_ESTIMATED_AFFINITY_LOWER_BOUNDARY [nM]>  (2) 
132695.609936

>  <BIOSOLVEIT.HYDE_ESTIMATED_AFFINITY_UPPER_BOUNDARY [nM]>  (2) 
13184093.405651

>  <BIOSOLVEIT.HYDE_LIGAND_EFFICIENCY range: ++, +, 0, -, -->  (2) 
--

>  <BIOSOLVEIT.HYDE_LIGAND_LIPOPHILIC_EFFICIENCY range: ++, +, 0, -, -->  (2) 
--

>  <BIOSOLVEIT.INTER_CLASH range: red, yellow, green>  (2) 
green

>  <BIOSOLVEIT.INTRA_CLASH range: red, yellow, green>  (2) 
red

>  <BIOSOLVEIT.LOGP>  (2) 
5.3856

>  <BIOSOLVEIT.MOLECULAR WEIGHT>  (2) 
489.404

>  <BIOSOLVEIT.MOLECULE_CHECKSUM>  (2) 
LTE2LjQzMDg7MC40ODMyNTg=

>  <BIOSOLVEIT.TORSION_QUALITY range: red, yellow, green, not rotatable>  (2) 
green

>  <BIOSOLVEIT.TPSA>  (2) 
64.15

$$$$
1MZC_BNE_2
     RDKit          3D

 35 38  0  0  0  0  0  0  0  0999 V2000
   14.3136  136.1601   -6.3701 C   0  0  0  0  0  0  0  0  0  0  0  0
   14.1048  136.3359   -4.8587 C   0  0  0  0  0  0  0  0  0  0  0  0
   15.2927  135.9464   -4.0001 C   0  0  0  0  0  0  0  0  0  0  0  0
   15.1071  134.5018   -3.5671 C   0  0  0  0  0  0  0  0  0  0  0  0
   13.8842  133.8689   -3.7649 C   0  0  0  0  0  0  0  0  0  0  0  0
   13.7368  132.5460   -3.3606 C   0  0  0  0  0  0  0  0  0  0  0  0
   14.7887  131.8567   -2.7664 C   0  0  0  0  0  0  0  0  0  0  0  0
   16.0030  132.5087   -2.5778 C   0  0  0  0  0  0  0  0  0  0  0  0
   17.0292  131.8466   -2.0012 O   0  0  0  0  0  0  0  0  0  0  0  0
   18.3572  132.3015   -1.9612 C   0  0  0  0  0  0  0  0  0  0  0  0
   18.9153  132.6245   -0.7288 C   0  0  0  0  0  0  0  0  0  0  0  0
   20.2302  133.0760   -0.6815 C   0  0  0  0  0  0  0  0  0  0  0  0
   20.8502  133.4323    0.6601 C   0  0  0  0  0  0  0  0  0  0  0  0
   21.6429  134.7595    0.6135 C   0  0  0  0  0  0  0  0  0  0  0  0
   21.7685  132.3366    1.0338 N   0  0  0  0  0  0  0  0  0  0  0  0
   19.7302  133.6171    1.6992 C   0  0  0  0  0  0  0  0  0  0  0  0
   19.4690  132.7851    2.7481 C   0  0  0  0  0  0  0  0  0  0  0  0
   18.4042  133.3118    3.4171 N   0  0  0  0  0  0  0  0  0  0  0  0
   18.0284  134.4156    2.8073 C   0  0  0  0  0  0  0  0  0  0  0  0
   18.8364  134.6405    1.7365 N   0  0  0  0  0  0  0  0  0  0  0  0
   18.7552  135.7665    0.7942 C   0  0  0  0  0  0  0  0  0  0  0  0
   20.9850  133.2065   -1.8427 C   0  0  0  0  0  0  0  0  0  0  0  0
   20.4165  132.8804   -3.0696 C   0  0  0  0  0  0  0  0  0  0  0  0
   19.1024  132.4277   -3.1289 C   0  0  0  0  0  0  0  0  0  0  0  0
   18.4811  132.0712   -4.4695 C   0  0  0  0  0  0  0  0  0  0  0  0
   18.0075  131.7997   -5.4900 N   0  0  0  0  0  0  0  0  0  0  0  0
   16.1722  133.8309   -2.9747 C   0  0  0  0  0  0  0  0  0  0  0  0
   16.4763  135.9618   -4.9701 C   0  0  0  0  0  0  0  0  0  0  0  0
   17.8678  135.7070   -4.3855 C   0  0  0  0  0  0  0  0  0  0  0  0
   18.4676  136.8816   -3.6191 C   0  0  0  0  0  0  0  0  0  0  0  0
   17.8911  137.1279   -2.2148 C   0  0  0  0  0  0  0  0  0  0  0  0
   16.4312  137.3386   -2.0072 N   0  0  0  0  0  0  0  0  0  0  0  0
   16.1056  138.1904   -0.8537 C   0  0  0  0  0  0  0  0  0  0  0  0
   15.3205  136.8475   -2.7544 C   0  0  0  0  0  0  0  0  0  0  0  0
   14.2245  137.1940   -2.3485 O   0  0  0  0  0  0  0  0  0  0  0  0
  1  2  1  0
  2  3  1  0
  3  4  1  0
  4  5  2  0
  5  6  1  0
  6  7  2  0
  7  8  1  0
  8  9  1  0
  9 10  1  0
 10 11  2  0
 11 12  1  0
 12 13  1  0
 13 14  1  0
 13 15  1  0
 13 16  1  0
 16 17  2  0
 17 18  1  0
 18 19  2  0
 19 20  1  0
 20 21  1  0
 12 22  2  0
 22 23  1  0
 23 24  2  0
 24 25  1  0
 25 26  3  0
  8 27  2  0
  3 28  1  0
 28 29  1  0
 29 30  1  0
 30 31  1  0
 31 32  1  0
 32 33  1  0
 32 34  1  0
 34 35  2  0
 34  3  1  0
 27  4  1  0
 24 10  1  0
 20 16  1  0
M  CHG  1  15   1
M  END
>  <BIOSOLVEIT.HYDE_ESTIMATED_AFFINITY_LOWER_BOUNDARY [nM]>  (3) 
369.492790

>  <BIOSOLVEIT.HYDE_ESTIMATED_AFFINITY_UPPER_BOUNDARY [nM]>  (3) 
36711.293300

>  <BIOSOLVEIT.HYDE_LIGAND_EFFICIENCY range: ++, +, 0, -, -->  (3) 
-

>  <BIOSOLVEIT.HYDE_LIGAND_LIPOPHILIC_EFFICIENCY range: ++, +, 0, -, -->  (3) 
--

>  <BIOSOLVEIT.INTER_CLASH range: red, yellow, green>  (3) 
green

>  <BIOSOLVEIT.INTRA_CLASH range: red, yellow, green>  (3) 
yellow

>  <BIOSOLVEIT.LOGP>  (3) 
3.87958

>  <BIOSOLVEIT.MOLECULAR WEIGHT>  (3) 
472.61

>  <BIOSOLVEIT.MOLECULE_CHECKSUM>  (3) 
LTMxLjAxNjI7MC44ODYxNzY=

>  <BIOSOLVEIT.TORSION_QUALITY range: red, yellow, green, not rotatable>  (3) 
green

>  <BIOSOLVEIT.TPSA>  (3) 
98.79

$$$$
1LD7_U66_1
     RDKit          3D

 34 39  0  0  0  0  0  0  0  0999 V2000
   13.1173  138.4680    0.8056 N   0  0  0  0  0  0  0  0  0  0  0  0
   14.0605  137.7974    0.8138 C   0  0  0  0  0  0  0  0  0  0  0  0
   15.2599  136.9440    0.8236 C   0  0  0  0  0  0  0  0  0  0  0  0
   16.5279  137.8093    0.7935 C   0  0  0  0  0  0  0  0  0  0  0  0
   17.7680  136.9591    0.7152 C   0  0  0  0  0  0  0  0  0  0  0  0
   17.7803  135.7189    0.1762 C   0  0  0  0  0  0  0  0  0  0  0  0
   16.4957  135.0569   -0.3141 C   0  0  0  0  0  0  0  0  0  0  0  0
   15.2593  135.9914   -0.3808 C   0  0  0  0  0  0  0  0  0  0  0  0
   15.2660  136.7631   -1.5855 O   0  0  0  0  0  0  0  0  0  0  0  0
   15.1523  136.2315   -2.8734 C   0  0  0  0  0  0  0  0  0  0  0  0
   14.2562  135.2005   -3.1930 C   0  0  0  0  0  0  0  0  0  0  0  0
   14.2216  134.6834   -4.4935 C   0  0  0  0  0  0  0  0  0  0  0  0
   15.1486  135.1234   -5.4542 C   0  0  0  0  0  0  0  0  0  0  0  0
   15.1604  134.5725   -6.7429 C   0  0  0  0  0  0  0  0  0  0  0  0
   16.1372  134.9611   -7.6622 C   0  0  0  0  0  0  0  0  0  0  0  0
   17.1448  135.8539   -7.2879 C   0  0  0  0  0  0  0  0  0  0  0  0
   17.1661  136.4070   -5.9976 C   0  0  0  0  0  0  0  0  0  0  0  0
   16.1031  136.1100   -5.1064 C   0  0  0  0  0  0  0  0  0  0  0  0
   15.9906  136.7438   -3.8574 C   0  0  0  0  0  0  0  0  0  0  0  0
   18.3434  137.1110   -5.5470 N   0  0  0  0  0  0  0  0  0  0  0  0
   19.0535  138.1521   -6.2747 C   0  0  0  0  0  0  0  0  0  0  0  0
   20.2770  138.5124   -5.4000 C   0  0  0  0  0  0  0  0  0  0  0  0
   19.9777  137.9638   -3.9902 C   0  0  0  0  0  0  0  0  0  0  0  0
   21.1681  137.4134   -3.3090 N   0  0  0  0  0  0  0  0  0  0  0  0
   20.9371  137.2606   -1.8494 C   0  0  0  0  0  0  0  0  0  0  0  0
   21.5291  135.9560   -1.2917 C   0  0  0  0  0  0  0  0  0  0  0  0
   20.6547  134.7686   -1.6080 C   0  0  0  0  0  0  0  0  0  0  0  0
   20.8260  133.9228   -2.6836 C   0  0  0  0  0  0  0  0  0  0  0  0
   19.8552  132.9885   -2.6785 N   0  0  0  0  0  0  0  0  0  0  0  0
   19.1048  133.2870   -1.5972 C   0  0  0  0  0  0  0  0  0  0  0  0
   19.5531  134.3715   -0.9307 N   0  0  0  0  0  0  0  0  0  0  0  0
   19.0252  134.8633    0.3468 C   0  0  0  0  0  0  0  0  0  0  0  0
   18.9713  136.9210   -4.2915 C   0  0  0  0  0  0  0  0  0  0  0  0
   18.6963  135.9593   -3.5265 O   0  0  0  0  0  0  0  0  0  0  0  0
  1  2  3  0
  2  3  1  0
  3  4  1  0
  4  5  1  0
  5  6  2  0
  6  7  1  0
  7  8  1  0
  8  9  1  0
  9 10  1  0
 10 11  2  0
 11 12  1  0
 12 13  2  0
 13 14  1  0
 14 15  2  0
 15 16  1  0
 16 17  2  0
 17 18  1  0
 18 19  2  0
 17 20  1  0
 20 21  1  0
 21 22  1  0
 22 23  1  0
 23 24  1  0
 24 25  1  0
 25 26  1  0
 26 27  1  0
 27 28  2  0
 28 29  1  0
 29 30  2  0
 30 31  1  0
 31 32  1  0
 23 33  1  0
 33 34  2  0
  8  3  1  0
 19 10  1  0
 33 20  1  0
 32  6  1  0
 18 13  1  0
 31 27  1  0
M  CHG  1  24   1
M  END
>  <BIOSOLVEIT.HYDE_ESTIMATED_AFFINITY_LOWER_BOUNDARY [nM]>  (4) 
924787.364065

>  <BIOSOLVEIT.HYDE_ESTIMATED_AFFINITY_UPPER_BOUNDARY [nM]>  (4) 
91883092.395492

>  <BIOSOLVEIT.HYDE_LIGAND_EFFICIENCY range: ++, +, 0, -, -->  (4) 
--

>  <BIOSOLVEIT.HYDE_LIGAND_LIPOPHILIC_EFFICIENCY range: ++, +, 0, -, -->  (4) 
--

>  <BIOSOLVEIT.INTER_CLASH range: red, yellow, green>  (4) 
green

>  <BIOSOLVEIT.INTRA_CLASH range: red, yellow, green>  (4) 
yellow

>  <BIOSOLVEIT.LOGP>  (4) 
2.56868

>  <BIOSOLVEIT.MOLECULAR WEIGHT>  (4) 
454.551

>  <BIOSOLVEIT.MOLECULE_CHECKSUM>  (4) 
LTExLjYxNzk7MC4zNDE3MDI=

>  <BIOSOLVEIT.TORSION_QUALITY range: red, yellow, green, not rotatable>  (4) 
not rotatable

>  <BIOSOLVEIT.TPSA>  (4) 
87.76

$$$$
1S63_778_3
     RDKit          3D

 29 32  0  0  0  0  0  0  0  0999 V2000
   15.5968  140.9173    3.8417 N   0  0  0  0  0  0  0  0  0  0  0  0
   16.0122  139.9587    3.3440 C   0  0  0  0  0  0  0  0  0  0  0  0
   16.5579  138.6984    2.6929 C   0  0  0  0  0  0  0  0  0  0  0  0
   17.9284  138.5765    2.4856 C   0  0  0  0  0  0  0  0  0  0  0  0
   18.4422  137.4287    1.8916 C   0  0  0  0  0  0  0  0  0  0  0  0
   17.5708  136.4134    1.5108 C   0  0  0  0  0  0  0  0  0  0  0  0
   18.1135  135.1668    0.8655 C   0  0  0  0  0  0  0  0  0  0  0  0
   18.8459  134.3449    1.8402 N   0  0  0  0  0  0  0  0  0  0  0  0
   18.2963  133.7317    2.9281 C   0  0  0  0  0  0  0  0  0  0  0  0
   19.2577  133.0908    3.5558 N   0  0  0  0  0  0  0  0  0  0  0  0
   20.4306  133.2839    2.8822 C   0  0  0  0  0  0  0  0  0  0  0  0
   20.1795  134.0745    1.7989 C   0  0  0  0  0  0  0  0  0  0  0  0
   21.1776  134.5434    0.7677 C   0  0  0  0  0  0  0  0  0  0  0  0
   21.6391  133.4454   -0.0968 N   0  0  0  0  0  0  0  0  0  0  0  0
   21.9537  134.0063   -1.4309 C   0  0  0  0  0  0  0  0  0  0  0  0
   21.1541  133.4741   -2.6150 C   0  0  0  0  0  0  0  0  0  0  0  0
   19.7618  133.1199   -2.2897 N   0  0  0  0  0  0  0  0  0  0  0  0
   18.7392  133.3553   -3.2170 C   0  0  0  0  0  0  0  0  0  0  0  0
   18.3354  132.3289   -4.0647 C   0  0  0  0  0  0  0  0  0  0  0  0
   17.3180  132.5679   -4.9829 C   0  0  0  0  0  0  0  0  0  0  0  0
   16.7062  133.8143   -5.0601 C   0  0  0  0  0  0  0  0  0  0  0  0
   17.1252  134.8266   -4.2026 C   0  0  0  0  0  0  0  0  0  0  0  0
   16.3545  136.4286   -4.2853 Cl  0  0  0  0  0  0  0  0  0  0  0  0
   18.1406  134.6093   -3.2771 C   0  0  0  0  0  0  0  0  0  0  0  0
   19.4895  132.5565   -1.0345 C   0  0  0  0  0  0  0  0  0  0  0  0
   18.3509  132.2412   -0.7223 O   0  0  0  0  0  0  0  0  0  0  0  0
   20.6509  132.3533   -0.0624 C   0  0  0  0  0  0  0  0  0  0  0  0
   16.2002  136.5323    1.7160 C   0  0  0  0  0  0  0  0  0  0  0  0
   15.6891  137.6815    2.3110 C   0  0  0  0  0  0  0  0  0  0  0  0
  1  2  3  0
  2  3  1  0
  3  4  2  0
  4  5  1  0
  5  6  2  0
  6  7  1  0
  7  8  1  0
  8  9  1  0
  9 10  2  0
 10 11  1  0
 11 12  2  0
 12 13  1  0
 13 14  1  0
 14 15  1  0
 15 16  1  0
 16 17  1  0
 17 18  1  0
 18 19  2  0
 19 20  1  0
 20 21  2  0
 21 22  1  0
 22 23  1  0
 22 24  2  0
 17 25  1  0
 25 26  2  0
 25 27  1  0
  6 28  1  0
 28 29  2  0
 29  3  1  0
 12  8  1  0
 27 14  1  0
 24 18  1  0
M  CHG  1  14   1
M  END
>  <BIOSOLVEIT.HYDE_ESTIMATED_AFFINITY_LOWER_BOUNDARY [nM]>  (5) 
796.149705

>  <BIOSOLVEIT.HYDE_ESTIMATED_AFFINITY_UPPER_BOUNDARY [nM]>  (5) 
79102.180407

>  <BIOSOLVEIT.HYDE_LIGAND_EFFICIENCY range: ++, +, 0, -, -->  (5) 
-

>  <BIOSOLVEIT.HYDE_LIGAND_LIPOPHILIC_EFFICIENCY range: ++, +, 0, -, -->  (5) 
-

>  <BIOSOLVEIT.INTER_CLASH range: red, yellow, green>  (5) 
green

>  <BIOSOLVEIT.INTRA_CLASH range: red, yellow, green>  (5) 
green

>  <BIOSOLVEIT.LOGP>  (5) 
1.88818

>  <BIOSOLVEIT.MOLECULAR WEIGHT>  (5) 
406.895

>  <BIOSOLVEIT.MOLECULE_CHECKSUM>  (5) 
LTI5LjExMzI7MS4wMDM5

>  <BIOSOLVEIT.TORSION_QUALITY range: red, yellow, green, not rotatable>  (5) 
green

>  <BIOSOLVEIT.TPSA>  (5) 
66.36

$$$$
3E37_ED5_3
     RDKit          3D

 43 46  0  0  0  0  0  0  0  0999 V2000
   18.1285  136.6355   -4.3014 C   0  0  0  0  0  0  0  0  0  0  0  0
   17.1058  136.2862   -5.3703 C   0  0  0  0  0  0  0  0  0  0  0  0
   17.5381  135.5885   -6.4936 C   0  0  0  0  0  0  0  0  0  0  0  0
   16.6218  135.2572   -7.4858 C   0  0  0  0  0  0  0  0  0  0  0  0
   15.2868  135.6236   -7.3496 C   0  0  0  0  0  0  0  0  0  0  0  0
   14.8528  136.3214   -6.2272 C   0  0  0  0  0  0  0  0  0  0  0  0
   15.7699  136.6531   -5.2346 C   0  0  0  0  0  0  0  0  0  0  0  0
   15.1978  137.5438   -3.8090 S   0  0  0  0  0  0  0  0  0  0  0  0
   13.7847  137.9819   -4.0710 O   0  0  0  0  0  0  0  0  0  0  0  0
   16.0381  138.7762   -3.6122 O   0  0  0  0  0  0  0  0  0  0  0  0
   15.2465  136.5441   -2.3654 N   0  0  0  0  0  0  0  0  0  0  0  0
   15.3556  135.1028   -2.6752 C   0  0  0  0  0  0  0  0  0  0  0  0
   15.9122  134.2503   -1.5190 C   0  0  0  0  0  0  0  0  0  0  0  0
   16.9875  133.3797   -2.0078 N   0  0  0  0  0  0  0  0  0  0  0  0
   16.7009  132.0538   -2.5668 C   0  0  0  0  0  0  0  0  0  0  0  0
   16.3469  132.1705   -4.0413 C   0  0  0  0  0  0  0  0  0  0  0  0
   17.2263  132.0993   -5.0815 C   0  0  0  0  0  0  0  0  0  0  0  0
   16.5007  132.2487   -6.2261 N   0  0  0  0  0  0  0  0  0  0  0  0
   15.2344  132.4050   -5.9039 C   0  0  0  0  0  0  0  0  0  0  0  0
   15.1006  132.3551   -4.5512 N   0  0  0  0  0  0  0  0  0  0  0  0
   13.8519  132.4850   -3.7854 C   0  0  0  0  0  0  0  0  0  0  0  0
   18.3513  133.7682   -1.7892 C   0  0  0  0  0  0  0  0  0  0  0  0
   19.3616  133.1574   -2.5251 C   0  0  0  0  0  0  0  0  0  0  0  0
   20.6880  133.5241   -2.3230 C   0  0  0  0  0  0  0  0  0  0  0  0
   20.9851  134.5033   -1.3817 C   0  0  0  0  0  0  0  0  0  0  0  0
   22.4304  134.9143   -1.1520 C   0  0  0  0  0  0  0  0  0  0  0  0
   23.5308  135.2264   -0.9763 N   0  0  0  0  0  0  0  0  0  0  0  0
   19.9784  135.1174   -0.6436 C   0  0  0  0  0  0  0  0  0  0  0  0
   18.6531  134.7476   -0.8484 C   0  0  0  0  0  0  0  0  0  0  0  0
   16.2653  136.9973   -1.3947 C   0  0  0  0  0  0  0  0  0  0  0  0
   15.6128  137.6346   -0.1512 C   0  0  0  0  0  0  0  0  0  0  0  0
   14.1745  138.0430   -0.4367 C   0  0  0  0  0  0  0  0  0  0  0  0
   13.6931  138.7385    0.8251 C   0  0  0  0  0  0  0  0  0  0  0  0
   14.4346  140.0009    0.9593 N   0  0  0  0  0  0  0  0  0  0  0  0
   13.9117  141.0639    1.7057 C   0  0  0  0  0  0  0  0  0  0  0  0
   12.7187  141.0247    2.1130 O   0  0  0  0  0  0  0  0  0  0  0  0
   14.7287  142.1696    1.9947 O   0  0  0  0  0  0  0  0  0  0  0  0
   14.3222  143.3842    2.6422 C   0  0  0  0  0  0  0  0  0  0  0  0
   13.7312  143.0862    4.0335 C   0  0  0  0  0  0  0  0  0  0  0  0
   13.3069  144.1496    1.7723 C   0  0  0  0  0  0  0  0  0  0  0  0
   15.5803  144.2491    2.8130 C   0  0  0  0  0  0  0  0  0  0  0  0
   15.7433  140.1332    0.2984 C   0  0  0  0  0  0  0  0  0  0  0  0
   16.4463  138.7843    0.3960 C   0  0  0  0  0  0  0  0  0  0  0  0
  1  2  1  0
  2  3  2  0
  3  4  1  0
  4  5  2  0
  5  6  1  0
  6  7  2  0
  7  8  1  0
  8  9  2  0
  8 10  2  0
  8 11  1  0
 11 12  1  0
 12 13  1  0
 13 14  1  0
 14 15  1  0
 15 16  1  0
 16 17  2  0
 17 18  1  0
 18 19  2  0
 19 20  1  0
 20 21  1  0
 14 22  1  0
 22 23  2  0
 23 24  1  0
 24 25  2  0
 25 26  1  0
 26 27  3  0
 25 28  1  0
 28 29  2  0
 11 30  1  0
 30 31  1  0
 31 32  1  0
 32 33  1  0
 33 34  1  0
 34 35  1  0
 35 36  2  0
 35 37  1  0
 37 38  1  0
 38 39  1  0
 38 40  1  0
 38 41  1  0
 34 42  1  0
 42 43  1  0
  7  2  1  0
 20 16  1  0
 29 22  1  0
 43 31  1  0
M  END
>  <BIOSOLVEIT.HYDE_ESTIMATED_AFFINITY_LOWER_BOUNDARY [nM]>  (6) 
33.397710

>  <BIOSOLVEIT.HYDE_ESTIMATED_AFFINITY_UPPER_BOUNDARY [nM]>  (6) 
3318.259936

>  <BIOSOLVEIT.HYDE_LIGAND_EFFICIENCY range: ++, +, 0, -, -->  (6) 
-

>  <BIOSOLVEIT.HYDE_LIGAND_LIPOPHILIC_EFFICIENCY range: ++, +, 0, -, -->  (6) 
--

>  <BIOSOLVEIT.INTER_CLASH range: red, yellow, green>  (6) 
green

>  <BIOSOLVEIT.INTRA_CLASH range: red, yellow, green>  (6) 
green

>  <BIOSOLVEIT.LOGP>  (6) 
5.5954

>  <BIOSOLVEIT.MOLECULAR WEIGHT>  (6) 
606.787

>  <BIOSOLVEIT.MOLECULE_CHECKSUM>  (6) 
LTM2Ljk3NDc7MC44NTk4Nzc=

>  <BIOSOLVEIT.TORSION_QUALITY range: red, yellow, green, not rotatable>  (6) 
red

>  <BIOSOLVEIT.TPSA>  (6) 
111.77

$$$$
2IEJ_S48_2
     RDKit          3D

 38 42  0  0  0  0  0  0  0  0999 V2000
   19.4861  138.5668   -8.0163 C   0  0  0  0  0  0  0  0  0  0  0  0
   20.3188  137.7168   -7.2376 O   0  0  0  0  0  0  0  0  0  0  0  0
   19.8362  136.9793   -6.1528 C   0  0  0  0  0  0  0  0  0  0  0  0
   18.7003  136.4321   -6.2012 O   0  0  0  0  0  0  0  0  0  0  0  0
   20.6611  136.8739   -4.9066 C   0  0  0  0  0  0  0  0  0  0  0  0
   20.5424  135.5209   -4.3118 N   0  0  0  0  0  0  0  0  0  0  0  0
   19.2625  135.2946   -3.6295 C   0  0  0  0  0  0  0  0  0  0  0  0
   18.9748  136.4637   -2.6973 C   0  0  0  0  0  0  0  0  0  0  0  0
   17.7525  136.1914   -1.8348 C   0  0  0  0  0  0  0  0  0  0  0  0
   17.1580  137.2854   -1.2380 C   0  0  0  0  0  0  0  0  0  0  0  0
   16.0508  137.0886   -0.4197 C   0  0  0  0  0  0  0  0  0  0  0  0
   15.4093  138.2265    0.2073 C   0  0  0  0  0  0  0  0  0  0  0  0
   14.0733  138.1372    0.5829 C   0  0  0  0  0  0  0  0  0  0  0  0
   13.4634  139.2333    1.1839 C   0  0  0  0  0  0  0  0  0  0  0  0
   14.1801  140.4037    1.4066 C   0  0  0  0  0  0  0  0  0  0  0  0
   15.5163  140.4839    1.0272 C   0  0  0  0  0  0  0  0  0  0  0  0
   16.1349  139.3931    0.4255 C   0  0  0  0  0  0  0  0  0  0  0  0
   15.5600  135.8062   -0.2034 C   0  0  0  0  0  0  0  0  0  0  0  0
   16.1928  134.7360   -0.8312 C   0  0  0  0  0  0  0  0  0  0  0  0
   17.2969  134.8871   -1.6674 C   0  0  0  0  0  0  0  0  0  0  0  0
   17.9012  133.8128   -2.3321 N   0  0  0  0  0  0  0  0  0  0  0  0
   17.2100  132.5412   -2.6010 C   0  0  0  0  0  0  0  0  0  0  0  0
   16.7047  132.4804   -4.0341 C   0  0  0  0  0  0  0  0  0  0  0  0
   17.4240  132.0691   -5.1176 C   0  0  0  0  0  0  0  0  0  0  0  0
   16.6016  132.1665   -6.2007 N   0  0  0  0  0  0  0  0  0  0  0  0
   15.4316  132.6169   -5.8012 C   0  0  0  0  0  0  0  0  0  0  0  0
   15.4573  132.8175   -4.4560 N   0  0  0  0  0  0  0  0  0  0  0  0
   14.3540  133.3120   -3.6190 C   0  0  0  0  0  0  0  0  0  0  0  0
   19.2648  134.0005   -2.8256 C   0  0  0  0  0  0  0  0  0  0  0  0
   21.9073  135.2621   -3.2164 S   0  0  0  0  0  0  0  0  0  0  0  0
   23.2212  135.5071   -3.9053 O   0  0  0  0  0  0  0  0  0  0  0  0
   21.8973  133.8315   -2.7543 O   0  0  0  0  0  0  0  0  0  0  0  0
   21.8377  136.3241   -1.8143 C   0  0  0  0  0  0  0  0  0  0  0  0
   21.4969  135.9391   -0.5539 C   0  0  0  0  0  0  0  0  0  0  0  0
   21.5734  137.0644    0.2044 N   0  0  0  0  0  0  0  0  0  0  0  0
   21.2954  137.1527    1.6450 C   0  0  0  0  0  0  0  0  0  0  0  0
   21.9541  138.0971   -0.5963 C   0  0  0  0  0  0  0  0  0  0  0  0
   22.1174  137.6584   -1.8226 N   0  0  0  0  0  0  0  0  0  0  0  0
  1  2  1  0
  2  3  1  0
  3  4  2  0
  3  5  1  0
  5  6  1  0
  6  7  1  0
  7  8  1  0
  8  9  1  0
  9 10  2  0
 10 11  1  0
 11 12  1  0
 12 13  2  0
 13 14  1  0
 14 15  2  0
 15 16  1  0
 16 17  2  0
 11 18  2  0
 18 19  1  0
 19 20  2  0
 20 21  1  0
 21 22  1  0
 22 23  1  0
 23 24  2  0
 24 25  1  0
 25 26  2  0
 26 27  1  0
 27 28  1  0
 21 29  1  0
  6 30  1  0
 30 31  2  0
 30 32  2  0
 30 33  1  0
 33 34  2  0
 34 35  1  0
 35 36  1  0
 35 37  1  0
 37 38  2  0
 29  7  1  0
 38 33  1  0
 20  9  1  0
 27 23  1  0
 17 12  1  0
M  CHG  1  38   1
M  END
>  <BIOSOLVEIT.HYDE_ESTIMATED_AFFINITY_LOWER_BOUNDARY [nM]>  (7) 
109.865747

>  <BIOSOLVEIT.HYDE_ESTIMATED_AFFINITY_UPPER_BOUNDARY [nM]>  (7) 
10915.811584

>  <BIOSOLVEIT.HYDE_LIGAND_EFFICIENCY range: ++, +, 0, -, -->  (7) 
-

>  <BIOSOLVEIT.HYDE_LIGAND_LIPOPHILIC_EFFICIENCY range: ++, +, 0, -, -->  (7) 
-

>  <BIOSOLVEIT.INTER_CLASH range: red, yellow, green>  (7) 
green

>  <BIOSOLVEIT.INTRA_CLASH range: red, yellow, green>  (7) 
red

>  <BIOSOLVEIT.LOGP>  (7) 
2.6855

>  <BIOSOLVEIT.MOLECULAR WEIGHT>  (7) 
535.645

>  <BIOSOLVEIT.MOLECULE_CHECKSUM>  (7) 
LTM0LjAyMjg7MC44OTUzMzc=

>  <BIOSOLVEIT.TORSION_QUALITY range: red, yellow, green, not rotatable>  (7) 
yellow

>  <BIOSOLVEIT.TPSA>  (7) 
103.81

$$$$
